%chk=opt.chk
%mem=2gb
%nproc=1
#p b3lyp 6-31G* opt scf(xqc,tight)

opt calculation

0 1
C     -3.258073   -0.780078    1.278717
C     -3.041475   -0.114730   -0.086784
C     -3.875299   -0.858536   -1.142487
C     -3.485048    1.353511   -0.045107
C     -1.557368   -0.191528   -0.463962
O     -1.118332   -0.760912   -1.455308
O     -0.794804    0.484549    0.489892
C      0.591868    0.500046    0.294982
C      1.216737    1.739999    0.253477
C      2.606114    1.799096    0.115417
C      3.381930    0.649166    0.031354
N      4.715158    0.761858   -0.099517
C      5.442387   -0.374493   -0.178029
C      4.899246   -1.644280   -0.128459
C      3.521675   -1.758827    0.010314
C      2.732048   -0.604586    0.093309
C      1.335881   -0.675275    0.235416
H     -2.726741   -0.248766    2.076328
H     -4.320404   -0.799634    1.546366
H     -2.890295   -1.812643    1.276137
H     -3.741087   -0.418063   -2.137329
H     -3.582215   -1.912732   -1.209747
H     -4.943977   -0.823404   -0.902829
H     -4.558438    1.437924    0.158059
H     -3.280429    1.853670   -0.998733
H     -2.956802    1.913715    0.734598
H      0.637933    2.655721    0.325035
H      3.100086    2.766972    0.074313
H      6.513483   -0.228592   -0.286321
H      5.531414   -2.521947   -0.197733
H      3.068400   -2.745968    0.048876
H      0.836428   -1.638376    0.289754

