%chk=opt.chk
%mem=2gb
%nproc=1
#p b3lyp 6-31G* opt scf(xqc,tight)

opt calculation

0 1
C      4.494538   -0.355729   -0.067626
C      2.999787   -0.620965   -0.049595
O      2.330094    0.637989   -0.025484
C      0.962433    0.617869   -0.006403
C      0.364260    1.877553    0.016698
C     -1.026007    2.005787    0.037824
C     -1.845853    0.869035    0.036181
C     -3.245855    0.976747    0.057208
C     -4.048758   -0.164652    0.055272
C     -3.462643   -1.426472    0.032316
C     -2.072204   -1.549713    0.011244
C     -1.248122   -0.411711    0.012841
C      0.155475   -0.521532   -0.008260
H      4.794767    0.219039    0.814808
H      4.769911    0.239507   -0.944582
H      5.056759   -1.293554   -0.086481
H      2.750718   -1.201776    0.846002
H      2.725330   -1.180864   -0.951071
H      0.986509    2.769140    0.018282
H     -1.461683    3.001867    0.055564
H     -3.721701    1.954660    0.075305
H     -5.131073   -0.066991    0.071695
H     -4.086672   -2.316335    0.030779
H     -1.634871   -2.545446   -0.006515
H      0.594863   -1.513451   -0.026004

