%chk=opt.chk
%mem=2gb
%nproc=1
#p b3lyp 6-31G* opt scf(xqc,tight)

opt calculation

0 1
C      2.389403    2.352504   -1.125761
N      2.567138    1.022857   -0.582008
C      3.788766    0.449093   -0.289237
C      5.100616    0.929885   -0.442910
C      6.157769    0.108177   -0.040373
C      5.919435   -1.152027    0.496926
C      4.611467   -1.624284    0.642318
C      3.526001   -0.815217    0.242293
C      2.107561   -0.998657    0.245038
C      1.265419   -2.058980    0.648148
C     -0.119935   -1.936031    0.508490
C     -0.661701   -0.769185   -0.018089
O     -2.059041   -0.746409   -0.181034
C     -2.767482    0.361053    0.289709
O     -2.284297    1.332463    0.857708
C     -4.260737    0.179512   -0.008328
C     -5.036967    1.400283    0.511643
C     -4.470713    0.064428   -1.523917
C     -4.776620   -1.078728    0.702297
C      0.141228    0.290406   -0.449294
C      1.531771    0.156049   -0.289884
H      1.464638    2.785164   -0.736497
H      2.346591    2.269997   -2.214506
H      3.222616    2.990504   -0.823014
H      5.302784    1.910383   -0.861295
H      7.180625    0.461364   -0.149117
H      6.753823   -1.776762    0.805102
H      4.433515   -2.610926    1.059468
H      1.692064   -2.968232    1.061133
H     -0.766980   -2.753959    0.811011
H     -4.905942    1.523306    1.593049
H     -6.110402    1.303233    0.313994
H     -4.691137    2.324134    0.033471
H     -4.052298    0.932528   -2.046205
H     -3.982070   -0.826791   -1.933482
H     -5.535793    0.000302   -1.773041
H     -5.856549   -1.199124    0.561481
H     -4.291547   -1.985176    0.322994
H     -4.578637   -1.031525    1.779330
H     -0.294383    1.184387   -0.880549

