%chk=opt.chk
%mem=2gb
%nproc=1
#p b3lyp 6-31G* opt scf(xqc,tight)

opt calculation

0 1
C      6.032879    1.221890   -0.684467
O      5.250022    0.096025   -1.060337
C      3.929158    0.114900   -0.707219
C      3.215471   -1.035447   -1.055412
C      1.855741   -1.151402   -0.755900
C      1.204970   -0.114142   -0.089917
O     -0.137774   -0.129717    0.194132
C     -0.725939   -1.202442    0.719130
N     -0.121781   -2.257361    1.224750
N     -1.112157   -3.082122    1.676970
N     -2.307286   -2.551903    1.470286
N     -2.096945   -1.352954    0.863967
C     -3.182767   -0.512622    0.496188
C     -4.493855   -0.923612    0.795785
C     -5.585014   -0.123400    0.449100
C     -5.380921    1.091024   -0.199299
C     -4.086428    1.506524   -0.502483
C     -2.988099    0.711046   -0.158308
C      1.905275    1.046004    0.241954
C      3.267111    1.158628   -0.059229
H      6.049830    1.346776    0.403329
H      7.060187    1.040012   -1.014606
H      5.679461    2.131052   -1.181940
H      3.723913   -1.850105   -1.565834
H      1.323745   -2.052429   -1.047741
H     -4.691370   -1.867453    1.302462
H     -6.594603   -0.450793    0.686233
H     -6.230566    1.713233   -0.469646
H     -3.929942    2.455072   -1.011735
H     -2.006873    1.087428   -0.426553
H      1.396348    1.865420    0.742469
H      3.778205    2.072868    0.222729

