%chk=opt.chk
%mem=2gb
%nproc=1
#p b3lyp 6-31G* opt scf(xqc,tight)

opt calculation

0 1
C      7.667940   -1.162711   -0.823044
C      6.969680   -0.410165    0.279314
O      7.602792    0.086090    1.209133
C      5.483535   -0.271155    0.231607
C      4.713904   -0.818185   -0.799287
C      3.322079   -0.659719   -0.797725
C      2.669209    0.043506    0.227931
C      1.206086    0.203396    0.223975
C      0.542834    0.754732   -0.887735
C     -0.846116    0.903681   -0.897863
C     -1.582933    0.482580    0.205239
O     -2.968458    0.660378    0.250848
C     -3.696152   -0.134451   -0.634543
O     -3.225523   -0.955023   -1.412785
C     -5.192167    0.169525   -0.488994
C     -5.642248   -0.143612    0.944069
C     -5.989195   -0.709881   -1.465990
C     -5.450187    1.644795   -0.822633
C     -0.956329   -0.046842    1.328428
C      0.433245   -0.190141    1.331892
C      3.454416    0.586536    1.256292
C      4.844994    0.432544    1.259201
H      7.328846   -2.201545   -0.846488
H      8.745618   -1.162313   -0.631449
H      7.495532   -0.672838   -1.784829
H      5.164595   -1.375120   -1.615234
H      2.741616   -1.105066   -1.604729
H      1.111121    1.084013   -1.755410
H     -1.339871    1.336411   -1.762420
H     -5.408837   -1.180473    1.212169
H     -6.721924    0.001659    1.061380
H     -5.141430    0.500820    1.675297
H     -5.690273   -0.522253   -2.503866
H     -5.824983   -1.775176   -1.266219
H     -7.065095   -0.517235   -1.388053
H     -5.078519    1.892718   -1.823555
H     -6.520522    1.877142   -0.791649
H     -4.946975    2.313467   -0.115217
H     -1.538378   -0.352302    2.192398
H      0.913887   -0.624559    2.206405
H      2.987936    1.148040    2.063919
H      5.426251    0.868734    2.070008

