%chk=opt.chk
%mem=2gb
%nproc=1
#p b3lyp 6-31G* opt scf(xqc,tight)

opt calculation

0 1
C     -2.793759    0.412228    1.355202
C     -1.882054    0.247645    0.128539
C     -2.309851   -1.006196   -0.645486
C     -2.007680    1.494242   -0.757084
C     -0.428863    0.092817    0.591958
O     -0.063342    0.107486    1.760525
O      0.404990   -0.060129   -0.517938
C      1.777167   -0.235727   -0.283635
C      2.648108    0.587760   -0.984990
C      4.003089    0.383354   -0.800619
N      4.515757   -0.571993    0.006387
C      3.632882   -1.360973    0.659945
C      2.260113   -1.242885    0.541913
H     -2.515050    1.295395    1.941786
H     -3.842776    0.525057    1.059266
H     -2.725507   -0.456518    2.020313
H     -3.365807   -0.953676   -0.933190
H     -2.167990   -1.909412   -0.040898
H     -1.724222   -1.134785   -1.562704
H     -1.416733    1.399456   -1.675025
H     -3.048636    1.668345   -1.051475
H     -1.650176    2.387607   -0.232180
H      2.286425    1.361504   -1.650300
H      4.737676    0.997187   -1.313883
H      4.075839   -2.118608    1.300111
H      1.600400   -1.909179    1.083460

