%chk=opt.chk
%mem=2gb
%nproc=1
#p b3lyp 6-31G* opt scf(xqc,tight)

opt calculation

0 1
C     -4.110407    0.416102    0.015792
O     -2.880349    1.102872    0.209483
C     -1.733485    0.372565    0.057661
C     -1.660189   -0.979573   -0.268662
C     -0.414996   -1.605648   -0.393035
C      0.775392   -0.890514   -0.193328
C      2.030954   -1.508062   -0.315407
C      3.203652   -0.779734   -0.112887
C      3.127582    0.567166    0.212108
O      4.298524    1.240486    0.401247
C      1.895674    1.203486    0.339260
C      0.706734    0.481822    0.137998
C     -0.552366    1.093536    0.258580
H     -4.232575   -0.389051    0.747827
H     -4.193851    0.036802   -1.008044
H     -4.921842    1.133492    0.171886
H     -2.549260   -1.578639   -0.433571
H     -0.382748   -2.662681   -0.648691
H      2.105440   -2.562765   -0.569569
H      4.171819   -1.262695   -0.208663
H      4.093426    2.164055    0.620723
H      1.847576    2.258071    0.593976
H     -0.624706    2.148906    0.512949

