%chk=opt.chk
%mem=2gb
%nproc=1
#p b3lyp 6-31G* opt scf(xqc,tight)

opt calculation

0 1
C      6.902454   -2.577624    0.541732
C      6.866325   -1.275155   -0.241465
N      6.312824   -0.182287    0.553545
C      7.233407    0.644702    1.324366
C      7.747989    1.821878    0.511470
C      4.950024    0.096654    0.605732
O      4.481436    1.033716    1.245120
O      4.199464   -0.807578   -0.140332
C      2.823364   -0.573627   -0.105537
C      2.049640   -1.220349    0.850651
C      0.670418   -1.023014    0.849980
C      0.061887   -0.192833   -0.110490
C      0.856816    0.435547   -1.089148
C      2.245662    0.238784   -1.078352
C      0.265357    1.371039   -2.111935
C     -1.257617    1.293511   -2.220471
C     -1.903583    1.254064   -0.821827
C     -1.451362   -0.026147   -0.092789
C     -2.112514   -1.301576   -0.639482
C     -3.499431   -1.104975   -1.247304
C     -4.288244    0.124831   -0.763416
C     -5.532953    0.249471   -1.682143
C     -3.445393    1.426485   -0.910423
C     -3.996666    2.327878    0.204220
C     -4.238228    1.398443    1.377590
C     -4.721827    0.082349    0.751431
O     -4.134118   -1.003392    1.480844
C     -5.224096   -1.846185    1.847607
C     -6.374938   -0.890679    1.970361
O     -6.153151    0.013694    0.891339
H      7.520081   -2.479197    1.440525
H      5.898192   -2.876691    0.859232
H      7.320064   -3.380074   -0.074179
H      6.265353   -1.410840   -1.146956
H      7.875404   -0.999708   -0.567354
H      6.723840    1.022005    2.218163
H      8.066663    0.021578    1.667472
H      6.923534    2.460621    0.178020
H      8.430845    2.429745    1.112804
H      8.286810    1.481544   -0.378730
H      2.511098   -1.864617    1.591692
H      0.063239   -1.521248    1.603060
H      2.876467    0.724474   -1.817449
H      0.549567    2.394151   -1.834239
H      0.698889    1.166180   -3.098260
H     -1.609830    2.164887   -2.785593
H     -1.539844    0.408815   -2.802631
H     -1.496292    2.118534   -0.277150
H     -1.735784    0.085000    0.959756
H     -1.479799   -1.773358   -1.404249
H     -2.168337   -2.044365    0.167079
H     -3.368562   -1.027849   -2.335742
H     -4.088493   -2.018860   -1.097777
H     -6.166847   -0.641826   -1.610672
H     -5.238505    0.355930   -2.732906
H     -6.143953    1.122626   -1.428886
H     -3.670092    1.925566   -1.862234
H     -4.948721    2.771249   -0.113203
H     -3.329301    3.155063    0.464690
H     -4.972608    1.832441    2.064880
H     -3.311861    1.258621    1.944454
H     -5.384089   -2.567709    1.039389
H     -5.003787   -2.383524    2.773132
H     -6.334671   -0.324902    2.907421
H     -7.351617   -1.371885    1.879134

