%chk=opt.chk
%mem=2gb
%nproc=1
#p b3lyp 6-31G* opt scf(xqc,tight)

opt calculation

0 1
C      5.022163   -1.117058    2.437966
C      3.660584   -1.670499    2.049415
N      3.222578   -1.168300    0.753067
C      3.610456   -1.911425   -0.442445
C      2.554962   -2.932424   -0.829224
C      2.474636    0.004534    0.700805
O      2.192881    0.660729    1.699645
O      2.097084    0.332581   -0.597935
C      1.365511    1.520505   -0.686452
C      2.034111    2.664678   -1.108925
C      1.331355    3.861571   -1.200143
C     -0.028048    3.911036   -0.864648
C     -0.726765    2.757083   -0.448428
Si    -2.562064    2.898881    0.063476
C     -2.710861    2.492577    1.893571
C     -3.196379    4.654723   -0.204202
C     -3.633097    1.735888   -0.944641
C     -0.007870    1.547536   -0.403327
O     -0.623808    0.354640   -0.002558
C     -0.954914   -0.492148   -1.058200
O     -0.864107   -0.194757   -2.246070
N     -1.444534   -1.719191   -0.619664
C     -1.995197   -2.649307   -1.598646
C     -0.937937   -3.579735   -2.168920
C     -1.419585   -2.123591    0.783416
C     -2.729048   -1.811443    1.488327
H      5.786187   -1.397928    1.705943
H      5.001355   -0.023797    2.494910
H      5.325737   -1.505216    3.414998
H      2.927915   -1.390195    2.814584
H      3.686814   -2.765159    2.014255
H      3.767139   -1.215327   -1.273274
H      4.569529   -2.407124   -0.256415
H      2.857773   -3.473527   -1.730622
H      1.596972   -2.443949   -1.026857
H      2.397399   -3.661199   -0.027629
H      3.090601    2.627574   -1.353097
H      1.841808    4.766463   -1.520289
H     -0.525843    4.876896   -0.931494
H     -2.149892    3.215443    2.493478
H     -2.318147    1.495111    2.107557
H     -3.757781    2.524456    2.209353
H     -2.628093    5.369728    0.397928
H     -4.248646    4.724891    0.087418
H     -3.114126    4.940244   -1.257050
H     -3.473779    0.694685   -0.655179
H     -4.692116    1.963861   -0.789320
H     -3.417646    1.835794   -2.012536
H     -2.795421   -3.228604   -1.125610
H     -2.451150   -2.081265   -2.417650
H     -0.459849   -4.166987   -1.378527
H     -1.389224   -4.273633   -2.884740
H     -0.156851   -3.016122   -2.688925
H     -1.209049   -3.197701    0.831971
H     -0.597758   -1.616776    1.300308
H     -3.564689   -2.346450    1.026054
H     -2.674811   -2.108498    2.540072
H     -2.956466   -0.742773    1.445124

