%chk=opt.chk
%mem=2gb
%nproc=1
#p b3lyp 6-31G* opt scf(xqc,tight)

opt calculation

0 1
C      3.551484    1.198721    1.183633
O      3.601882   -0.055634    0.515889
C      2.415970   -0.561061    0.057351
C      2.522930   -1.784182   -0.606221
C      1.391444   -2.409050   -1.126527
C      0.140046   -1.809745   -0.983915
C      0.001990   -0.580834   -0.319162
C     -1.319381    0.050034   -0.167151
C     -2.121647    0.326712   -1.286536
C     -3.375431    0.927087   -1.143229
C     -3.848499    1.259600    0.123636
C     -3.069389    0.992724    1.246603
C     -1.815281    0.393432    1.101599
C      1.158922    0.033416    0.198450
H      3.184519    1.986513    0.517437
H      2.947506    1.136792    2.094920
H      4.572002    1.461462    1.478524
H      3.497579   -2.252731   -0.718286
H      1.484279   -3.362358   -1.639573
H     -0.735835   -2.315156   -1.386013
H     -1.765900    0.083984   -2.285950
H     -3.979822    1.135949   -2.022053
H     -4.823919    1.725587    0.235665
H     -3.437341    1.247119    2.237113
H     -1.227355    0.182203    1.992621
H      1.049246    0.989418    0.701174

