%chk=opt.chk
%mem=2gb
%nproc=1
#p b3lyp 6-31G* opt scf(xqc,tight)

opt calculation

0 1
C      2.696661   -0.256236   -0.437378
O      1.664656    0.693232   -0.673360
C      0.407156    0.357865   -0.253911
C     -0.569906    1.324973   -0.509639
C     -1.898499    1.113719   -0.134258
C     -2.250760   -0.073447    0.501175
Br    -4.045774   -0.369274    1.013275
C     -1.286836   -1.045469    0.761951
C      0.043270   -0.829560    0.384052
H      3.629975    0.160451   -0.828182
H      2.833679   -0.432027    0.634717
H      2.501066   -1.192515   -0.970470
H     -0.291928    2.251688   -1.006285
H     -2.642395    1.877677   -0.342054
H     -1.557833   -1.973846    1.257943
H      0.767468   -1.607230    0.602425

