%chk=opt.chk
%mem=2gb
%nproc=1
#p b3lyp 6-31G* opt scf(xqc,tight)

opt calculation

0 1
C      6.951087   -1.414540    0.003083
N      5.811829   -0.841575    0.693347
C      6.049241   -0.306550    2.022467
C      4.654280   -0.572437   -0.030004
O      4.499517   -0.901996   -1.201996
O      3.703872    0.112304    0.725427
C      2.510466    0.453788    0.074488
C      2.504074    1.345887   -0.993222
C      1.286888    1.702530   -1.574234
C      0.076481    1.184675   -1.080164
C     -1.156598    1.531301   -1.649505
C     -2.357617    1.013314   -1.146309
C     -2.351012    0.140497   -0.066803
O     -3.417894   -0.445385    0.538658
C     -4.790112   -0.293077    0.145868
C     -5.071726   -0.847452   -1.256464
C     -5.304449    1.138759    0.341064
C     -5.550969   -1.188148    1.147699
C     -1.121642   -0.209350    0.506494
C      0.094659    0.296527    0.017381
C      1.323423   -0.058928    0.594683
H      7.419109   -2.165789    0.645842
H      7.668325   -0.616382   -0.210221
H      6.660304   -1.889780   -0.937507
H      5.117641   -0.090254    2.550351
H      6.617310   -1.035692    2.607610
H      6.627329    0.617224    1.926881
H      3.432460    1.754341   -1.380285
H      1.288630    2.388998   -2.417755
H     -1.195734    2.212797   -2.496807
H     -3.270297    1.324861   -1.634914
H     -6.148608   -0.922509   -1.444405
H     -4.654864   -0.223798   -2.049698
H     -4.628956   -1.842852   -1.376267
H     -4.892264    1.839684   -0.387345
H     -5.027198    1.518832    1.330979
H     -6.394990    1.185048    0.245279
H     -6.631842   -1.173083    0.971142
H     -5.205123   -2.226817    1.083554
H     -5.365120   -0.864982    2.179001
H     -1.120491   -0.894800    1.352199
H      1.360582   -0.735192    1.444100

