%chk=opt.chk
%mem=2gb
%nproc=1
#p b3lyp 6-31G* opt scf(xqc,tight)

opt calculation

0 1
C     -3.377876    0.837208    1.583629
C     -2.672143    0.135209    0.412208
C     -3.229959    0.684910   -0.907231
C     -2.922069   -1.375322    0.513061
C     -1.165638    0.411634    0.485842
O     -0.624339    1.091281    1.349296
O     -0.519691   -0.225110   -0.572579
C      0.864093   -0.030288   -0.589133
C      1.390829    1.166150   -1.106711
C      2.774999    1.343284   -1.168445
C      3.573733    0.309865   -0.722214
C      3.043637   -0.864003   -0.233129
C      1.684352   -1.073113   -0.157977
O      4.005372   -1.749732    0.142104
C      5.199510   -0.993868   -0.148685
O      4.933826    0.307404   -0.712052
H     -4.458954    0.659707    1.561098
H     -3.000072    0.477865    2.547931
H     -3.216336    1.921044    1.552839
H     -3.005108    1.752258   -1.015244
H     -2.796704    0.173124   -1.773925
H     -4.317300    0.560785   -0.960512
H     -2.475670   -1.788024    1.425119
H     -2.485108   -1.915128   -0.334567
H     -3.994428   -1.599696    0.529392
H      0.726705    1.953941   -1.450172
H      3.209076    2.259128   -1.552748
H      1.277152   -2.001521    0.221162
H      5.767796   -0.864884    0.779784
H      5.810313   -1.564107   -0.857967

