%chk=opt.chk
%mem=2gb
%nproc=1
#p b3lyp 6-31G* opt scf(xqc,tight)

opt calculation

0 1
C     -4.968393   -0.818950    1.179419
O     -3.552586   -0.910766    1.271927
C     -2.825832   -0.232985    0.331343
C     -3.345645    0.544835   -0.701626
C     -2.484120    1.183301   -1.595280
C     -1.101140    1.046347   -1.459242
C     -0.551775    0.269767   -0.427974
C      0.906064    0.124571   -0.279136
C      1.539882    0.397429    0.943346
C      2.924717    0.261793    1.086670
C      3.710535   -0.162686    0.011365
C      5.198845   -0.277417    0.154452
C      3.092862   -0.424301   -1.215053
C      1.707870   -0.286650   -1.355561
C     -1.438038   -0.363843    0.460034
H     -5.330582   -1.237584    0.234609
H     -5.306334    0.214359    1.310295
H     -5.395735   -1.413999    1.992281
H     -4.413333    0.676015   -0.839528
H     -2.889970    1.792747   -2.398746
H     -0.449102    1.563819   -2.160199
H      0.955317    0.733859    1.797502
H      3.382873    0.491533    2.045962
H      5.596160   -1.054583   -0.506901
H      5.472863   -0.551947    1.178555
H      5.673425    0.676480   -0.095302
H      3.683387   -0.742042   -2.071326
H      1.254056   -0.515394   -2.317713
H     -1.046271   -0.983706    1.264562

