%chk=opt.chk
%mem=2gb
%nproc=1
#p b3lyp 6-31G* opt scf(xqc,tight)

opt calculation

0 1
C      6.089660    1.019728   -0.371157
C      4.636143    0.651625   -0.440052
C      4.145949   -0.433324    0.294854
C      2.798344   -0.820300    0.211112
C      2.341045   -2.014312    1.001668
C      1.927795   -0.080882   -0.618197
C      0.487827   -0.430148   -0.720734
O     -0.071903   -0.699068   -1.770370
O     -0.067320   -0.297304    0.538338
C     -1.477802   -0.265098    0.519628
C     -2.209949   -1.478095    0.548052
C     -1.616583   -2.759525    0.584518
C     -2.390017   -3.921547    0.604771
C     -3.775470   -3.829305    0.591077
C     -4.385353   -2.575829    0.560148
C     -3.619016   -1.397711    0.541837
C     -4.244757   -0.139643    0.522093
C     -3.509601    1.057394    0.529095
C     -4.163153    2.301793    0.532897
C     -3.439011    3.493538    0.558682
C     -2.050743    3.457489    0.585145
C     -1.388396    2.228901    0.578292
C     -2.100421    1.008425    0.540559
C      2.413419    1.001734   -1.384417
C      1.530854    1.776694   -2.326572
C      3.770914    1.346581   -1.291198
H      6.652522    0.463532   -1.127053
H      6.229560    2.092216   -0.542800
H      6.503548    0.793175    0.617091
H      4.828739   -0.992030    0.933927
H      1.705428   -1.704002    1.836016
H      1.798622   -2.712593    0.357401
H      3.190173   -2.565879    1.420003
H     -0.536520   -2.862464    0.591171
H     -1.907624   -4.895014    0.625964
H     -4.382951   -4.730186    0.602918
H     -5.472136   -2.524777    0.550974
H     -5.332890   -0.091001    0.513177
H     -5.249988    2.351462    0.518956
H     -3.960600    4.446911    0.562469
H     -1.480678    4.382284    0.612072
H     -0.301300    2.229767    0.608279
H      0.601689    2.078808   -1.834804
H      2.021470    2.695337   -2.666363
H      1.300307    1.173276   -3.209969
H      4.160172    2.169368   -1.889500

