%chk=opt.chk
%mem=2gb
%nproc=1
#p b3lyp 6-31G* opt scf(xqc,tight)

opt calculation

0 1
C     -3.810921    1.102000   -1.416734
C     -3.711939    0.038251   -0.317601
C     -4.949652    0.151401    0.585886
C     -3.657716   -1.380193   -0.895987
O     -2.589297    0.292292    0.562917
C     -1.317356    0.271004    0.088506
O     -0.986515    0.049574   -1.066474
O     -0.473769    0.545394    1.152633
C      0.875671    0.554368    0.796920
C      1.449379    1.725275    0.312327
C      2.809743    1.737439    0.004348
C      3.599796    0.589643    0.193408
C      4.970035    0.588761   -0.112274
C      5.744746   -0.555731    0.084326
C      5.160686   -1.713806    0.589236
C      3.799783   -1.731550    0.898630
C      3.005516   -0.589806    0.705947
C      1.636635   -0.593423    1.012329
H     -2.989587    1.025638   -2.135530
H     -3.760684    2.109376   -0.988381
H     -4.746643    1.008536   -1.978462
H     -4.898782   -0.571187    1.408814
H     -5.004610    1.143546    1.049094
H     -5.876979   -0.022455    0.029953
H     -2.833569   -1.501872   -1.605262
H     -3.499770   -2.118173   -0.101469
H     -4.583755   -1.630429   -1.424839
H      0.849386    2.618681    0.170306
H      3.253130    2.651586   -0.383969
H      5.445730    1.483410   -0.507752
H      6.804260   -0.541739   -0.157653
H      5.763504   -2.605223    0.741830
H      3.361905   -2.646804    1.290652
H      1.161642   -1.483782    1.414326

