%chk=opt.chk
%mem=2gb
%nproc=1
#p b3lyp 6-31G* opt scf(xqc,tight)

opt calculation

0 1
C     -2.819519   -1.413713   -0.091423
C     -2.393876   -0.001823   -0.515331
C     -3.569982    0.662513   -1.247288
C     -2.036683    0.847982    0.709429
O     -1.340915   -0.061599   -1.487197
C     -0.052909   -0.483297   -1.039284
O      0.664028    0.594292   -0.446054
C      1.908471    0.317815    0.047851
C      2.590449   -0.894872   -0.065551
C      3.865710   -1.037301    0.491261
C      4.464373    0.029171    1.159921
C      3.790188    1.242277    1.271751
C      2.517846    1.383750    0.715786
H     -2.048526   -1.906991    0.508987
H     -2.990850   -2.048571   -0.968012
H     -3.736387   -1.392033    0.507644
H     -3.847478    0.090458   -2.140457
H     -3.294256    1.664923   -1.595287
H     -4.452991    0.750613   -0.605549
H     -1.658445    1.830994    0.407791
H     -1.256692    0.373357    1.314176
H     -2.906382    0.997286    1.358674
H     -0.141097   -1.330762   -0.352067
H      0.481690   -0.810687   -1.937978
H      2.166930   -1.748302   -0.583939
H      4.394204   -1.983026    0.399803
H      5.455946   -0.084442    1.590242
H      4.252323    2.078835    1.788876
H      1.994828    2.333152    0.803223

