%chk=opt.chk
%mem=2gb
%nproc=1
#p b3lyp 6-31G* opt scf(xqc,tight)

opt calculation

0 1
C     -6.649058    0.573062    1.294017
N     -5.713593    0.245888    0.235397
C     -6.174916    0.428555   -1.129427
C     -4.370605    0.075733    0.557257
O     -3.950088    0.062580    1.710144
O     -3.568316   -0.067116   -0.573176
C     -2.203465   -0.270712   -0.334379
C     -1.750429   -1.454189    0.239578
C     -0.379058   -1.646129    0.409026
C      0.541466   -0.668390   -0.008270
C      1.926262   -0.850140    0.155639
C      2.854026    0.120608   -0.260021
C      4.299981   -0.087705   -0.080314
C      5.086356    0.851455    0.607511
C      6.459210    0.654112    0.779107
C      7.069328   -0.486693    0.263849
C      6.308233   -1.430007   -0.421759
C      4.935268   -1.231756   -0.591424
C      2.361908    1.292739   -0.851055
C      0.988836    1.491963   -1.023790
C      0.067016    0.521965   -0.606937
C     -1.313648    0.707952   -0.772834
H     -7.586579    0.036041    1.123136
H     -6.261510    0.297497    2.278422
H     -6.835104    1.651043    1.275560
H     -7.166696   -0.020194   -1.237618
H     -6.232811    1.501207   -1.336169
H     -5.503609   -0.037974   -1.854112
H     -2.451887   -2.217299    0.562417
H     -0.031417   -2.567342    0.871243
H      2.291309   -1.761045    0.628018
H      4.626963    1.743800    1.028183
H      7.049225    1.390760    1.317999
H      8.136862   -0.640645    0.396921
H      6.781378   -2.320271   -0.827607
H      4.360607   -1.975743   -1.139587
H      3.051357    2.061582   -1.194509
H      0.646974    2.414044   -1.488411
H     -1.699775    1.610765   -1.237116

