%chk=opt.chk
%mem=2gb
%nproc=1
#p b3lyp 6-31G* opt scf(xqc,tight)

opt calculation

0 1
C      3.261261   -1.329832   -0.883067
C      2.983496   -0.262131    0.183177
C      3.423976    1.120352   -0.315553
C      3.775672   -0.609120    1.454147
C      1.484721   -0.237943    0.508450
O      1.011366   -0.462903    1.615198
O      0.760769    0.076399   -0.640907
C     -0.632301    0.120258   -0.430786
C     -1.384556   -1.061318   -0.641383
C     -0.818437   -2.292953   -1.041257
C     -1.607950   -3.429095   -1.226196
C     -2.979551   -3.358738   -1.017899
C     -3.561058   -2.152023   -0.629379
C     -2.779477   -0.999101   -0.441798
C     -3.373420    0.217068   -0.062691
C     -2.620703    1.391155    0.111929
C     -3.245548    2.597781    0.470969
C     -2.506072    3.769131    0.633366
C     -1.131019    3.750757    0.437106
C     -0.496127    2.559233    0.082801
C     -1.223800    1.358791   -0.080743
H      2.903303   -2.313380   -0.557691
H      4.333716   -1.412403   -1.091820
H      2.758115   -1.097868   -1.828472
H      4.503926    1.150634   -0.498157
H      3.183000    1.898440    0.417850
H      2.923403    1.390917   -1.252021
H      4.853263   -0.635043    1.256993
H      3.484290   -1.589550    1.848618
H      3.598362    0.127611    2.246323
H      0.251296   -2.376416   -1.213320
H     -1.149525   -4.366307   -1.530280
H     -3.598850   -4.240734   -1.157795
H     -4.637414   -2.117418   -0.474082
H     -4.451222    0.253077    0.090909
H     -4.321789    2.634119    0.626669
H     -3.005387    4.693319    0.911899
H     -0.549896    4.660673    0.560940
H      0.580169    2.574562   -0.066367

