%chk=opt.chk
%mem=2gb
%nproc=1
#p b3lyp 6-31G* opt scf(xqc,tight)

opt calculation

0 1
C      3.834812    1.012046    0.379805
C      2.626895    0.144782    0.576897
O      2.431116   -0.544520    1.568225
O      1.807219    0.266903   -0.538669
C      0.629028   -0.490960   -0.458243
C      0.704801   -1.862128   -0.714557
C     -0.456396   -2.625515   -0.681673
C     -1.683490   -2.015968   -0.410229
C     -1.771454   -0.632324   -0.173203
C     -3.009621   -0.022187    0.087433
C     -3.098238    1.351808    0.314165
C     -1.950407    2.135740    0.282729
C     -0.711607    1.545596    0.027026
C     -0.598296    0.157421   -0.201387
H      4.485440    0.931027    1.255285
H      3.527948    2.055232    0.270066
H      4.390969    0.678594   -0.499850
H      1.659896   -2.332398   -0.926949
H     -0.410231   -3.695702   -0.865286
H     -2.579508   -2.633167   -0.387814
H     -3.919958   -0.617218    0.115114
H     -4.064185    1.807741    0.514872
H     -2.016524    3.206158    0.458556
H      0.171790    2.179039    0.007687

