%chk=opt.chk
%mem=2gb
%nproc=1
#p b3lyp 6-31G* opt scf(xqc,tight)

opt calculation

0 1
C      4.233716   -0.132316    0.152961
O      3.266009   -0.943987   -0.499975
C      1.964235   -0.539029   -0.413740
C      1.493094    0.585755    0.250343
C      0.118826    0.881437    0.256709
C     -0.834454    0.069726   -0.384000
N     -2.199102    0.383616   -0.384678
C     -2.705776    1.325265    0.612198
C     -3.156941   -0.617983   -0.849551
C     -0.320947   -1.049499   -1.060087
C      1.048710   -1.353026   -1.071094
H      5.215646   -0.587475   -0.008601
H      4.259030    0.874763   -0.276341
H      4.056507   -0.097914    1.233037
H      2.158797    1.264169    0.772416
H     -0.181208    1.783494    0.781064
H     -3.790314    1.454726    0.522515
H     -2.499206    0.972557    1.628768
H     -2.273158    2.321627    0.472467
H     -3.117502   -1.519364   -0.228021
H     -2.977289   -0.883386   -1.896934
H     -4.182523   -0.233651   -0.810711
H     -0.972708   -1.725630   -1.603934
H      1.396558   -2.233875   -1.604693

