%chk=opt.chk
%mem=2gb
%nproc=1
#p b3lyp 6-31G* opt scf(xqc,tight)

opt calculation

0 1
C     -7.696513   -1.217556    0.725707
C     -6.927955    0.043386    0.298608
C     -7.204554    0.318002   -1.185366
C     -7.393730    1.225207    1.159438
C     -5.425135   -0.182657    0.503247
O     -4.927961   -1.222360    0.917520
O     -4.725145    0.969395    0.144648
C     -3.332597    0.900142    0.269203
C     -2.720872    1.781620    1.153673
C     -1.330283    1.781968    1.263072
C     -0.548453    0.913985    0.480830
C      0.851874    0.902816    0.579603
C      1.622633    0.039394   -0.202813
O      2.974242    0.122045   -0.016011
Si     4.292883   -0.666909   -0.663954
C      4.476192   -0.367822   -2.507074
C      4.282954   -2.506851   -0.297618
C      5.999464    0.121601    0.248380
C      6.053575    1.634973   -0.043667
C      5.894371   -0.117724    1.768335
C      7.250801   -0.576243   -0.316949
C      0.998215   -0.825596   -1.096655
C     -0.395592   -0.827519   -1.208272
C     -1.182210    0.034218   -0.428340
C     -2.581366    0.041716   -0.533018
H     -8.776598   -1.090293    0.591313
H     -7.516164   -1.454033    1.780868
H     -7.387180   -2.089869    0.138099
H     -6.827221   -0.497195   -1.813541
H     -6.717346    1.239485   -1.523436
H     -8.278415    0.423155   -1.375915
H     -6.917910    2.162974    0.851132
H     -8.477824    1.366357    1.086002
H     -7.143383    1.066085    2.214679
H     -3.315867    2.461811    1.755173
H     -0.856644    2.467202    1.962716
H      1.357219    1.571412    1.272850
H      5.384278   -0.841511   -2.890544
H      3.623912   -0.781894   -3.053644
H      4.529451    0.703046   -2.723434
H      5.191144   -2.984953   -0.675402
H      4.221067   -2.688277    0.779230
H      3.424996   -2.991703   -0.772186
H      6.129386    1.835851   -1.117962
H      5.160287    2.148968    0.329266
H      6.924859    2.091816    0.439196
H      5.853717   -1.186414    2.006469
H      4.997481    0.351740    2.188320
H      6.762987    0.302809    2.287740
H      7.343120   -0.426297   -1.398118
H      7.231071   -1.655322   -0.129747
H      8.159220   -0.177903    0.149258
H      1.565032   -1.509748   -1.718283
H     -0.864686   -1.513619   -1.910361
H     -3.084827   -0.622912   -1.229303

