%chk=opt.chk
%mem=2gb
%nproc=1
#p b3lyp 6-31G* opt scf(xqc,tight)

opt calculation

0 1
C     -2.599733   -3.482967   -0.132486
O     -1.419011   -2.690760   -0.139916
C     -1.667112   -1.340348   -0.013701
N     -2.911801   -0.909295    0.144265
C     -3.020274    0.406775    0.258156
O     -4.313936    0.855438    0.420578
C     -4.412570    2.270515    0.518158
N     -2.018383    1.276285    0.231713
C     -0.822337    0.719935    0.074131
O      0.229279    1.630547    0.028772
C      1.498177    1.108616    0.000029
C      2.230289    1.207917   -1.183782
C      3.539844    0.727762   -1.227395
C      4.111651    0.165554   -0.080967
C      5.496145   -0.347079   -0.118282
O      6.187784   -0.285949   -1.127025
C      3.384812    0.088126    1.111816
C      2.075308    0.571099    1.153843
N     -0.582834   -0.580874   -0.056519
H     -3.130303   -3.396940    0.822209
H     -2.300317   -4.528804   -0.251858
H     -3.256014   -3.228001   -0.971983
H     -4.054366    2.758523   -0.395053
H     -3.881269    2.646374    1.399522
H     -5.470674    2.523812    0.636090
H      1.783847    1.650369   -2.070082
H      4.111012    0.792738   -2.151300
H      5.882287   -0.789975    0.815044
H      3.823195   -0.340842    2.008887
H      1.507303    0.521450    2.078882

