%chk=opt.chk
%mem=2gb
%nproc=1
#p b3lyp 6-31G* opt scf(xqc,tight)

opt calculation

0 1
C     -3.677181   -0.565964    0.423213
O     -3.022170    0.601401   -0.056199
C     -1.656238    0.565535   -0.120149
C     -1.066893    1.736448   -0.596980
C      0.320493    1.839749   -0.714857
C      1.145972    0.766200   -0.355208
C      2.541578    0.850999   -0.466543
C      3.335999   -0.230037   -0.102300
F      4.667604   -0.135884   -0.213541
C      2.772712   -1.405191    0.374624
C      1.385745   -1.504134    0.490828
C      0.557065   -0.426669    0.129902
C     -0.843528   -0.510996    0.241334
H     -4.754330   -0.373498    0.411549
H     -3.485153   -1.423035   -0.230695
H     -3.389200   -0.783800    1.456973
H     -1.694610    2.578142   -0.880061
H      0.747960    2.766798   -1.090166
H      3.023234    1.751761   -0.834974
H      3.414165   -2.235210    0.652480
H      0.954893   -2.429980    0.865825
H     -1.278119   -1.432635    0.614944

