%chk=opt.chk
%mem=2gb
%nproc=1
#p b3lyp 6-31G* opt scf(xqc,tight)

opt calculation

0 1
C      6.323645    0.456278    0.893256
C      5.592053   -0.619506    0.105600
C      4.070097   -0.551847    0.248851
C      3.462133    0.716115   -0.356460
C      1.953824    0.692290   -0.293313
C      1.284621    1.159124    0.848432
C     -0.108226    1.118877    0.917264
C     -0.828519    0.593010   -0.151641
O     -2.224572    0.617497   -0.072964
C     -2.842453   -0.631970   -0.029583
O     -2.271674   -1.715631   -0.040965
C     -4.363797   -0.450793    0.039453
C     -4.847983    0.299420   -1.208405
C     -4.730551    0.327471    1.309941
C     -5.040693   -1.830232    0.086189
C     -0.186100    0.137306   -1.300519
C      1.207105    0.178502   -1.364562
H      6.112983    1.455030    0.500056
H      6.038847    0.432198    1.949835
H      7.405013    0.297450    0.830293
H      5.930591   -1.600646    0.459503
H      5.871029   -0.551049   -0.952283
H      3.797477   -0.630394    1.308959
H      3.641187   -1.433097   -0.245593
H      3.781455    0.827318   -1.400346
H      3.823566    1.608629    0.167856
H      1.847909    1.556550    1.689679
H     -0.622160    1.490011    1.798327
H     -4.539305   -0.218829   -2.123603
H     -4.436211    1.313806   -1.255735
H     -5.940192    0.386093   -1.220245
H     -4.316448    1.341938    1.296596
H     -4.338303   -0.171067    2.203830
H     -5.816998    0.416242    1.420949
H     -4.795814   -2.423252   -0.802691
H     -6.131383   -1.736995    0.135680
H     -4.714142   -2.403601    0.961604
H     -0.756856   -0.257203   -2.135260
H      1.708850   -0.195041   -2.254321

