%chk=opt.chk
%mem=2gb
%nproc=1
#p b3lyp 6-31G* opt scf(xqc,tight)

opt calculation

0 1
C      4.118432    1.524819    2.470148
C      3.060583    1.658492    1.392262
O      2.851780    0.367095    0.809383
C      1.907997    0.344818   -0.167592
O      1.286377    1.312256   -0.575220
C      1.735643   -1.043273   -0.668474
C      2.791811   -1.965958   -0.593656
C      2.641481   -3.259960   -1.102372
C      1.440174   -3.644471   -1.697130
C      0.383212   -2.739798   -1.779637
C      0.529777   -1.452019   -1.253864
O     -0.572120   -0.598768   -1.388071
C     -1.287178   -0.408421   -0.207547
O     -1.000724   -0.938908    0.862845
N     -2.377327    0.438279   -0.374239
C     -3.188098    0.780978    0.787354
C     -4.351802   -0.181261    0.963209
C     -2.727328    1.035022   -1.660219
C     -2.028199    2.366450   -1.879930
H      4.314236    2.489449    2.946585
H      3.799962    0.809983    3.236112
H      5.053443    1.142676    2.047247
H      3.402687    2.360152    0.623281
H      2.125711    2.021159    1.834259
H      3.743224   -1.685164   -0.147642
H      3.465626   -3.966698   -1.037377
H      1.327103   -4.650099   -2.094780
H     -0.553826   -3.037970   -2.241630
H     -3.553706    1.807584    0.675783
H     -2.564029    0.757240    1.687816
H     -4.942827    0.093073    1.842322
H     -3.996686   -1.208519    1.095759
H     -5.011240   -0.166863    0.089441
H     -3.814307    1.166603   -1.700680
H     -2.460871    0.346938   -2.469477
H     -2.325052    2.796858   -2.841258
H     -2.283077    3.081912   -1.091580
H     -0.940865    2.246311   -1.882556

