%chk=opt.chk
%mem=2gb
%nproc=1
#p b3lyp 6-31G* opt scf(xqc,tight)

opt calculation

0 1
C      6.554527   -2.516581    1.060763
C      5.130690   -2.083890    1.375436
C      4.382000   -1.672855    0.105949
C      2.894594   -1.349872    0.344558
C      2.190521   -1.026080   -0.998577
N      1.312246    0.163471   -0.886145
C      2.179760    1.331750   -0.614397
C      3.004893    1.149518    0.666789
C      2.627993   -0.184179    1.327652
C      1.110080   -0.127538    1.587925
C      0.348935   -0.063092    0.239271
C     -0.888448    0.902460    0.324465
O     -0.468665    2.229795    0.682998
C     -1.520709    3.021708    1.220152
O     -0.983857    4.272443    1.639583
C     -2.007030    5.178359    2.019917
C     -1.711894    0.888993   -0.961469
C     -1.365492    1.773047   -1.992196
C     -2.107533    1.774041   -3.153763
N     -3.165140    0.968256   -3.364128
C     -3.495668    0.098616   -2.398454
C     -4.573977   -0.741243   -2.635382
C     -5.000386   -1.690573   -1.701641
C     -4.331138   -1.811384   -0.493464
O     -4.628444   -2.691683    0.508994
C     -5.716629   -3.579820    0.282128
C     -3.242878   -0.972248   -0.234622
C     -2.803727    0.000460   -1.168023
H      7.115692   -1.703732    0.589737
H      7.076217   -2.800294    1.979672
H      6.563292   -3.377319    0.384950
H      4.605149   -2.908574    1.870331
H      5.171155   -1.248405    2.082117
H      4.891534   -0.817729   -0.354690
H      4.443479   -2.494459   -0.620011
H      2.427326   -2.253004    0.762666
H      2.916019   -0.863964   -1.807032
H      1.595885   -1.892100   -1.318272
H      1.596145    2.255877   -0.565185
H      2.857732    1.483556   -1.464211
H      4.076281    1.178482    0.437030
H      2.804370    1.979506    1.355723
H      3.157423   -0.312375    2.275618
H      0.795278   -1.021499    2.139742
H      0.883273    0.733619    2.226431
H     -0.087835   -1.057826    0.066247
H     -1.505289    0.545153    1.156467
H     -1.959537    2.519453    2.090426
H     -2.290020    3.188652    0.457660
H     -1.536946    6.098019    2.381574
H     -2.635767    5.425891    1.158531
H     -2.617493    4.756852    2.824176
H     -0.520964    2.448275   -1.890881
H     -1.862787    2.444004   -3.972276
H     -5.100790   -0.656677   -3.583729
H     -5.851585   -2.311868   -1.958650
H     -5.524252   -4.227738   -0.578575
H     -6.656119   -3.029714    0.160533
H     -5.815270   -4.218731    1.164898
H     -2.736219   -1.103209    0.716968

