%chk=opt.chk
%mem=2gb
%nproc=1
#p b3lyp 6-31G* opt scf(xqc,tight)

opt calculation

0 1
C      3.683732   -0.362817    0.032916
O      2.650880    0.350105   -0.635782
C      1.365444    0.057355   -0.273534
C      0.385742    0.781645   -0.956500
C     -0.973595    0.584748   -0.687498
C     -1.365444   -0.344790    0.273553
O     -2.650881   -0.637540    0.635797
C     -3.683733    0.075347   -0.032938
C     -0.385742   -1.069077    0.956521
C      0.973596   -0.872181    0.687518
H      4.641695   -0.016461   -0.366832
H      3.676273   -0.153220    1.107682
H      3.611172   -1.438009   -0.161519
H      0.683868    1.508946   -1.708024
H     -1.693213    1.172980   -1.246069
H     -4.641698   -0.271025    0.366789
H     -3.676241   -0.134264   -1.107701
H     -3.611201    1.150543    0.161484
H     -0.683868   -1.796378    1.708046
H      1.693213   -1.460412    1.246090

