%chk=opt.chk
%mem=2gb
%nproc=1
#p b3lyp 6-31G* opt scf(xqc,tight)

opt calculation

0 1
C      6.418499   -0.233684    0.440509
O      4.994990   -0.349491    0.438485
C      4.408218    0.095810   -0.700616
O      4.990023    0.557172   -1.669997
C      2.928560   -0.052454   -0.624184
C      2.164436    0.377180   -1.721200
C      0.773330    0.261421   -1.701170
C      0.151772   -0.272863   -0.575499
O     -1.237158   -0.422305   -0.600427
C     -1.928260    0.429247    0.261065
O     -1.420462    1.263978    0.999821
C     -3.434725    0.166907    0.147434
C     -3.733383   -1.284638    0.544991
C     -4.190173    1.110259    1.097400
C     -3.895063    0.435175   -1.291453
C      0.892730   -0.724945    0.515365
C      2.284529   -0.606647    0.493432
H      6.787724   -0.613889    1.396992
H      6.853328   -0.836507   -0.362938
H      6.718318    0.814712    0.345604
H      2.652973    0.803257   -2.595820
H      0.185815    0.589076   -2.553646
H     -3.260777   -1.997114   -0.140438
H     -4.810687   -1.484425    0.537079
H     -3.355710   -1.502916    1.550563
H     -3.995690    2.160770    0.851756
H     -5.272534    0.948750    1.041233
H     -3.882667    0.955815    2.138233
H     -3.633497    1.452339   -1.605145
H     -4.980262    0.319287   -1.388816
H     -3.424770   -0.254078   -2.001776
H      0.396971   -1.155649    1.380371
H      2.853603   -0.949552    1.353967

