%chk=opt.chk
%mem=2gb
%nproc=1
#p b3lyp 6-31G* opt scf(xqc,tight)

opt calculation

0 1
C     -2.959807   -3.368682   -0.418151
C     -2.476488   -1.952961   -0.319704
C     -1.170016   -1.689106    0.052656
C     -0.772769   -0.358428    0.107407
O      0.532653   -0.055666    0.525508
C      1.525622   -0.350721   -0.407845
O      1.341731   -0.850203   -1.510702
C      2.897158    0.037530    0.156538
C      3.180450   -0.786273    1.419381
C      3.982554   -0.261370   -0.890104
C      2.916370    1.537697    0.478592
C     -1.668050    0.688256   -0.168615
C     -1.324694    2.057752   -0.099278
C     -2.266267    3.041769   -0.392162
C     -3.554079    2.668752   -0.754331
C     -3.892727    1.313981   -0.819278
C     -2.974673    0.312294   -0.531780
N     -3.367829   -0.973191   -0.605095
H     -2.874599   -3.865785    0.553142
H     -2.369848   -3.919209   -1.157531
H     -4.009597   -3.401716   -0.727021
H     -0.478836   -2.491574    0.280872
H      2.460257   -0.566116    2.215419
H      3.115208   -1.860505    1.211458
H      4.181561   -0.577659    1.812807
H      3.808384    0.301484   -1.814552
H      3.998546   -1.325370   -1.153531
H      4.978229    0.005610   -0.518496
H      2.201817    1.790890    1.269840
H      2.649299    2.132804   -0.402296
H      3.908280    1.858288    0.816067
H     -0.319637    2.360342    0.183045
H     -1.995014    4.092823   -0.338933
H     -4.299473    3.424691   -0.987108
H     -4.903714    1.029574   -1.102273

