%chk=opt.chk
%mem=2gb
%nproc=1
#p b3lyp 6-31G* opt scf(xqc,tight)

opt calculation

0 1
C      7.103664    0.047407    0.852663
O      6.183212    0.030215   -0.231089
C      4.852829    0.012837    0.086911
C      4.317630    0.009621    1.372769
C      2.930512   -0.009513    1.556072
C      2.057109   -0.026773    0.457881
C      0.662590   -0.046543    0.630132
C     -0.193863   -0.056000   -0.478928
N     -1.608194   -0.077633   -0.290003
C     -2.288055   -0.886718    0.624110
C     -1.835494   -1.892624    1.504640
C     -2.767606   -2.561268    2.303683
C     -4.120099   -2.259505    2.222667
C     -4.572366   -1.290619    1.323979
C     -3.650548   -0.603175    0.503170
C     -3.801735    0.386558   -0.511465
C     -4.927296    1.044594   -1.055700
C     -4.757334    2.020726   -2.040143
C     -3.484017    2.358317   -2.477754
C     -2.354813    1.719473   -1.956952
C     -2.528728    0.706749   -0.989567
C      0.341514   -0.045354   -1.769771
C      1.726818   -0.029540   -1.949586
C      2.595587   -0.019546   -0.847127
C      3.990175   -0.001670   -1.013192
H      7.009160   -0.855298    1.465252
H      6.983464    0.951657    1.458433
H      8.114101    0.060190    0.432794
H      4.947446    0.021835    2.255810
H      2.536732   -0.011234    2.570427
H      0.252983   -0.011402    1.637650
H     -0.787565   -2.170978    1.561309
H     -2.427792   -3.334114    2.989413
H     -4.833770   -2.789289    2.848356
H     -5.634641   -1.075244    1.250659
H     -5.925487    0.800375   -0.703360
H     -5.626036    2.527404   -2.452580
H     -3.360304    3.135824   -3.228218
H     -1.367990    2.025217   -2.290716
H     -0.297962   -0.093248   -2.648032
H      2.125631   -0.033583   -2.962041
H      4.420535    0.002609   -2.012555

