%chk=opt.chk
%mem=2gb
%nproc=1
#p b3lyp 6-31G* opt scf(xqc,tight)

opt calculation

0 1
C     -2.512044   -2.251936   -0.968381
C     -2.529828   -0.789814   -1.383966
N     -2.134508    0.088118   -0.285788
C     -3.179894    0.622193    0.579335
C     -3.727916    1.938718    0.052483
C     -0.810164    0.430207   -0.032858
O     -0.471363    1.190412    0.869317
O      0.073198   -0.191168   -0.912406
C      1.418481    0.104598   -0.679577
C      2.058748    1.003170   -1.528507
C      3.412677    1.270321   -1.339144
C      4.114632    0.630717   -0.313206
C      3.469706   -0.284350    0.538111
C      4.240802   -0.990441    1.623963
F      5.197491   -0.206176    2.195316
F      3.457546   -1.427314    2.649359
F      4.892802   -2.092298    1.158620
C      2.109167   -0.556235    0.335621
H     -2.811693   -2.889051   -1.806050
H     -1.512329   -2.559391   -0.644795
H     -3.201132   -2.433006   -0.137098
H     -1.852432   -0.643820   -2.232068
H     -3.531373   -0.503145   -1.723090
H     -2.775382    0.779459    1.585519
H     -3.981136   -0.119852    0.666346
H     -4.506553    2.320850    0.719649
H     -4.162404    1.814768   -0.944692
H     -2.937761    2.693275   -0.019833
H      1.509023    1.494019   -2.325826
H      3.923334    1.976103   -1.989791
H      5.173298    0.849317   -0.176944
H      1.587008   -1.268249    0.970750

