%chk=opt.chk
%mem=2gb
%nproc=1
#p b3lyp 6-31G* opt scf(xqc,tight)

opt calculation

0 1
C     -3.971484    0.957296    0.690301
C     -3.408201    1.145501   -0.709331
N     -2.273884    0.271720   -0.991628
C     -2.521027   -1.033866   -1.600602
C     -2.683651   -2.148067   -0.579116
C     -1.011945    0.657407   -0.541434
O     -0.801805    1.721828    0.032787
O     -0.038540   -0.299813   -0.814901
C      1.250235    0.047165   -0.391996
C      2.024304    0.869332   -1.210873
C      3.328505    1.181383   -0.830994
C      3.859322    0.671297    0.360691
C      5.273265    0.983521    0.754468
C      3.075481   -0.181044    1.154953
C      1.761592   -0.504461    0.788211
C      0.933855   -1.417445    1.641852
H     -4.393149   -0.042915    0.818984
H     -4.770107    1.682472    0.875694
H     -3.199666    1.097067    1.453818
H     -3.080461    2.186135   -0.818153
H     -4.186395    0.978695   -1.461827
H     -3.410515   -0.968209   -2.236539
H     -1.681391   -1.276787   -2.261539
H     -2.798449   -3.110755   -1.087134
H     -3.568780   -1.992102    0.042958
H     -1.816404   -2.214484    0.084491
H      1.614718    1.268373   -2.133521
H      3.927964    1.826895   -1.468463
H      5.951056    0.228980    0.343670
H      5.574033    1.969035    0.383639
H      5.380024    1.000841    1.844189
H      3.496530   -0.594592    2.069493
H      1.483451   -1.744812    2.530613
H      0.652483   -2.311730    1.076736
H      0.029036   -0.903861    1.982327

