%chk=opt.chk
%mem=2gb
%nproc=1
#p b3lyp 6-31G* opt scf(xqc,tight)

opt calculation

0 1
C     -3.889227   -0.149015    0.940080
O     -3.160292    0.974566    0.462621
C     -1.829765    0.789295    0.205975
C     -1.165178    1.923573   -0.259538
C      0.197166    1.877910   -0.561922
C      0.921785    0.689100   -0.402566
C      2.292885    0.624193   -0.701682
C      3.003467   -0.569756   -0.537674
C      4.402256   -0.621775   -0.846737
N      5.534796   -0.664564   -1.096787
C      2.345862   -1.709878   -0.072176
C      0.982400   -1.657373    0.228588
C      0.255887   -0.465961    0.068960
C     -1.117961   -0.400758    0.368633
H     -3.499386   -0.491632    1.904274
H     -3.892580   -0.959266    0.203524
H     -4.926024    0.165638    1.093258
H     -1.713888    2.853700   -0.388434
H      0.683637    2.781445   -0.922813
H      2.810523    1.511034   -1.065184
H      2.886440   -2.645367    0.060068
H      0.489750   -2.558086    0.590128
H     -1.612553   -1.297021    0.729402

