%chk=opt.chk
%mem=2gb
%nproc=1
#p b3lyp 6-31G* opt scf(xqc,tight)

opt calculation

0 1
C     -2.799633    2.879852   -0.853995
O     -1.463918    2.401822   -0.760618
C     -1.382581    1.074447   -0.397957
N     -2.491728    0.378111   -0.185005
C     -2.283513   -0.886755    0.152157
O     -3.436267   -1.611758    0.367822
C     -3.193154   -2.966913    0.722841
N     -1.100173   -1.471392    0.289510
C     -0.070109   -0.664632    0.063373
O      1.172842   -1.276893    0.160969
C      2.258568   -0.474568    0.391809
C      3.385031   -0.656789   -0.404777
C      4.526059    0.101455   -0.155792
C      4.501196    1.001616    0.898726
N      3.433997    1.183871    1.707036
C      2.334938    0.439047    1.436415
N     -0.145297    0.612038   -0.294503
H     -3.359813    2.346643   -1.630060
H     -3.312259    2.820391    0.112491
H     -2.756981    3.934799   -1.141980
H     -2.640523   -3.038050    1.666194
H     -4.162870   -3.452526    0.869397
H     -2.672393   -3.501210   -0.079481
H      3.374298   -1.379044   -1.215502
H      5.414941   -0.009091   -0.766625
H      5.367210    1.615127    1.131105
H      1.502131    0.600402    2.113848

