%chk=opt.chk
%mem=2gb
%nproc=1
#p b3lyp 6-31G* opt scf(xqc,tight)

opt calculation

0 1
C      3.752769    2.144425    0.889915
C      3.708397    1.090636   -0.204809
N      3.149363   -0.168322    0.280155
C      4.066240   -1.172832    0.805282
C      4.567926   -2.102789   -0.287729
C      1.785470   -0.444063    0.260868
O      1.310663   -1.511993    0.635470
O      1.037738    0.628637   -0.220588
C     -0.345182    0.436815   -0.302635
C     -1.162796    1.281148    0.432503
C     -2.554321    1.156033    0.327288
C     -3.164410    0.196980   -0.506329
N     -4.558411    0.087371   -0.616587
C     -5.394580    0.708380    0.409736
C     -5.120368   -1.109380   -1.241710
C     -2.289123   -0.610579   -1.260545
C     -0.895556   -0.497234   -1.167665
H      4.175757    3.076675    0.503408
H      4.369307    1.811794    1.731284
H      2.750449    2.357227    1.275572
H      3.107459    1.460313   -1.042471
H      4.715570    0.903889   -0.593429
H      3.556917   -1.765089    1.573778
H      4.905865   -0.665560    1.293031
H      5.249899   -2.849038    0.131124
H      3.737046   -2.629339   -0.768689
H      5.103886   -1.546975   -1.063823
H     -0.732429    2.035241    1.083657
H     -3.151035    1.842595    0.919240
H     -5.270819    1.796540    0.417747
H     -5.168178    0.303111    1.402190
H     -6.458466    0.530942    0.215376
H     -6.215749   -1.074870   -1.250165
H     -4.816987   -1.188888   -2.291071
H     -4.822622   -2.014485   -0.700790
H     -2.670315   -1.356427   -1.950736
H     -0.259371   -1.140888   -1.766996

