%chk=opt.chk
%mem=2gb
%nproc=1
#p b3lyp 6-31G* opt scf(xqc,tight)

opt calculation

0 1
C      5.776932   -0.154122   -0.024441
C      5.446221    1.183271    0.166381
C      4.106043    1.569579    0.216484
C      3.077891    0.624413    0.076542
C      1.725898    1.020529    0.128013
C      0.713031    0.053720   -0.014985
C      1.087985   -1.269432   -0.203578
C      2.408433   -1.708483   -0.261336
C      3.415296   -0.738952   -0.117989
C      4.768263   -1.108293   -0.165600
O     -0.010099   -2.065548   -0.322388
C     -1.100343   -1.257711   -0.210706
C     -2.425014   -1.682595   -0.277095
C     -3.422341   -0.702322   -0.140270
C     -4.778848   -1.057145   -0.196715
C     -5.778131   -0.092216   -0.062095
C     -5.434364    1.241565    0.130919
C     -4.090480    1.613496    0.189769
C     -3.071624    0.657361    0.056504
C     -1.715829    1.038969    0.116795
C     -0.712472    0.061356   -0.019630
H      6.820055   -0.457083   -0.063769
H      6.230554    1.927652    0.276490
H      3.870574    2.621101    0.366616
H      1.457401    2.062439    0.276626
H      2.630945   -2.758488   -0.411308
H      5.049688   -2.148912   -0.313979
H     -2.657781   -2.730163   -0.428544
H     -5.070444   -2.094690   -0.346960
H     -6.824160   -0.383989   -0.108237
H     -6.211384    1.994304    0.235943
H     -3.844746    2.662441    0.341474
H     -1.437152    2.077947    0.267193

