%chk=opt.chk
%mem=2gb
%nproc=1
#p b3lyp 6-31G* opt scf(xqc,tight)

opt calculation

0 1
C      4.971503    0.117433   -0.555764
C      3.899560    0.931637   -0.917428
C      2.593278    0.577622   -0.563595
C      2.355975   -0.595495    0.155141
O      1.137002   -1.060426    0.564794
C     -0.006415   -0.271945    0.226672
O     -1.183082   -0.906869    0.732395
C     -2.376538   -0.282259    0.497030
C     -3.491619   -0.947419    1.014670
C     -4.774618   -0.423544    0.848819
C     -4.950580    0.774172    0.161075
C     -3.844069    1.443954   -0.358366
C     -2.558409    0.918379   -0.191800
C      3.436672   -1.406221    0.513758
C      4.740223   -1.053555    0.161019
H      5.985262    0.395279   -0.832200
H      4.080720    1.845933   -1.477167
H      1.791135    1.241462   -0.866461
H     -0.080792   -0.203582   -0.865747
H      0.092645    0.716289    0.692685
H     -3.357977   -1.883210    1.552454
H     -5.632702   -0.951152    1.256490
H     -5.948188    1.185157    0.029959
H     -3.982047    2.379188   -0.895359
H     -1.727859    1.473955   -0.612951
H      3.259806   -2.321639    1.073674
H      5.571116   -1.693143    0.446355

