%chk=opt.chk
%mem=2gb
%nproc=1
#p b3lyp 6-31G* opt scf(xqc,tight)

opt calculation

0 1
C      6.182504    1.088769    1.173693
O      4.790943    1.164193    1.455412
C      3.946652    0.548797    0.572175
C      4.323722   -0.132698   -0.582599
C      3.351264   -0.718831   -1.400135
C      1.988478   -0.630959   -1.075697
C      1.000893   -1.215894   -1.878308
C     -0.354022   -1.116833   -1.536821
C     -0.768903   -0.426403   -0.392101
N     -2.115840   -0.298553   -0.003591
C     -3.075674   -1.261501   -0.563755
C     -4.391021   -1.188485    0.211568
C     -4.947610    0.232084    0.219946
C     -3.904077    1.213511    0.744996
C     -2.588964    1.099423   -0.026641
C      0.233630    0.146539    0.411049
C      1.601058    0.058977    0.088372
C      2.590553    0.639802    0.900161
H      6.713917    1.619237    1.969716
H      6.420933    1.584426    0.226838
H      6.530407    0.050466    1.175911
H      5.362753   -0.229439   -0.877922
H      3.668056   -1.248433   -2.295878
H      1.274506   -1.756394   -2.781358
H     -1.074805   -1.580630   -2.202601
H     -3.263459   -1.049153   -1.624068
H     -2.689187   -2.284775   -0.480066
H     -4.226297   -1.518624    1.244995
H     -5.122792   -1.871773   -0.233462
H     -5.848056    0.276481    0.842421
H     -5.242858    0.517957   -0.796947
H     -3.721188    1.010570    1.807806
H     -4.288362    2.237095    0.673540
H     -2.733301    1.426560   -1.064758
H     -1.870261    1.786384    0.434949
H     -0.060199    0.654611    1.327551
H      2.306606    1.173496    1.804767

