%chk=opt.chk
%mem=2gb
%nproc=1
#p b3lyp 6-31G* opt scf(xqc,tight)

opt calculation

0 1
C     -5.198201    0.053738    0.174034
C     -3.703324    0.104867    0.055208
C     -3.032589    1.336130    0.079625
C     -1.644982    1.387791   -0.058213
C     -0.930777    0.203429   -0.217068
O      0.451655    0.297932   -0.409070
C      1.239356   -0.292984    0.578643
O      0.825814   -0.860275    1.582297
C      2.721647   -0.123653    0.223386
C      3.063084    1.370236    0.145610
C      3.009151   -0.810733   -1.118133
C      3.585937   -0.777145    1.313879
C     -1.580553   -1.027072   -0.279215
C     -2.968305   -1.073506   -0.139686
H     -5.654971    0.130237   -0.817427
H     -5.520953   -0.882336    0.641790
H     -5.568504    0.873149    0.799045
H     -3.589476    2.261763    0.206079
H     -1.130156    2.343253   -0.041549
H      2.806934    1.881658    1.080633
H      2.511551    1.869904   -0.658719
H      4.131562    1.523609   -0.042540
H      4.075145   -0.764111   -1.367235
H      2.457648   -0.340338   -1.939932
H      2.713347   -1.865829   -1.091223
H      3.365345   -1.846856    1.407731
H      4.653747   -0.674464    1.090295
H      3.403832   -0.318882    2.292945
H     -1.018897   -1.944007   -0.427674
H     -3.474067   -2.035506   -0.181804

