%chk=opt.chk
%mem=2gb
%nproc=1
#p b3lyp 6-31G* opt scf(xqc,tight)

opt calculation

0 1
C     -4.435894   -0.573350    0.292704
O     -3.463150    0.058603    1.115147
C     -2.169712    0.032000    0.674419
C     -1.713501   -0.554824   -0.503049
C     -0.351726   -0.509791   -0.837785
C      0.574559    0.124613    0.003148
N      1.963508    0.170184   -0.338910
C      2.556065   -0.366725   -1.469548
C      3.911185   -0.118288   -1.442253
C      4.178637    0.595555   -0.260192
C      2.978203    0.759897    0.396029
C      0.108141    0.712810    1.186154
C     -1.252298    0.663692    1.513252
H     -5.408765   -0.464377    0.781666
H     -4.499555   -0.088547   -0.687094
H     -4.231997   -1.644509    0.192028
H     -2.387807   -1.057953   -1.188324
H     -0.056479   -0.984570   -1.767953
H      1.982355   -0.889118   -2.219550
H      4.624189   -0.422488   -2.197669
H      5.140093    0.954971    0.083339
H      2.786050    1.257083    1.334498
H      0.766544    1.219979    1.883419
H     -1.598648    1.125152    2.435401

