%chk=opt.chk
%mem=2gb
%nproc=1
#p b3lyp 6-31G* opt scf(xqc,tight)

opt calculation

0 1
C     -2.989632    0.097738   -0.067590
O     -1.995491   -0.864420    0.262176
C     -0.695591   -0.441817    0.252051
C     -0.252703    0.846263   -0.051822
C      1.115305    1.144433   -0.023989
C      2.047573    0.156132    0.307848
C      3.447145    0.465158    0.335278
N      4.579641    0.718362    0.356646
C      1.605759   -1.133350    0.612170
C      0.239676   -1.426550    0.583183
H     -2.858879    0.465323   -1.090734
H     -2.994076    0.922975    0.652134
H     -3.964345   -0.396629   -0.013387
H     -0.943173    1.641414   -0.314182
H      1.445014    2.153993   -0.263505
H      2.314500   -1.916800    0.872873
H     -0.100723   -2.432225    0.820850

