%chk=opt.chk
%mem=2gb
%nproc=1
#p b3lyp 6-31G* opt scf(xqc,tight)

opt calculation

0 1
C      3.587668    0.825713    0.475482
C      2.675208    0.397777    1.440742
C      1.480319   -0.209624    1.052025
C      1.194985   -0.372719   -0.306066
O      0.053125   -0.995368   -0.756893
C     -1.142848   -0.604109   -0.198911
C     -1.508478    0.737328   -0.060029
C     -2.753204    1.063672    0.480298
C     -3.634540    0.052470    0.865216
C     -3.276603   -1.286522    0.704047
C     -2.032762   -1.615393    0.164317
C      2.117160    0.034016   -1.270812
C      3.311063    0.640783   -0.879614
H      4.519051    1.296424    0.780073
H      2.897161    0.531291    2.496288
H      0.783158   -0.556622    1.809429
H     -0.835085    1.529731   -0.374257
H     -3.037927    2.106288    0.594972
H     -4.604710    0.308433    1.283633
H     -3.967647   -2.073433    0.994469
H     -1.754908   -2.657116    0.030743
H      1.903016   -0.117998   -2.324978
H      4.026797    0.964977   -1.630440

