%chk=opt.chk
%mem=2gb
%nproc=1
#p b3lyp 6-31G* opt scf(xqc,tight)

opt calculation

0 1
C      4.250068   -1.358422    1.842871
O      3.713593   -0.214999    1.191411
C      2.416482   -0.284037    0.738536
C      1.590232   -1.392275    0.919593
C      0.281026   -1.383945    0.437405
C     -0.242354   -0.275550   -0.242067
N     -1.578376   -0.257270   -0.679612
C     -2.504035    0.448892    0.237626
C     -3.649931   -0.475286    0.681028
O     -4.411924   -1.017526   -0.410432
C     -3.628602   -1.238615   -1.596692
C     -2.137803   -1.469815   -1.303641
C      0.595618    0.861312   -0.440685
C      0.153690    2.007392   -1.143339
C      0.969773    3.122745   -1.335864
C      2.260967    3.121376   -0.834157
C      2.732629    2.001465   -0.149993
C      1.927612    0.857091    0.057064
H      3.707433   -1.575679    2.768666
H      4.261233   -2.225980    1.174926
H      5.286786   -1.133587    2.111493
H      1.926460   -2.280592    1.442793
H     -0.333935   -2.256609    0.633379
H     -1.992125    0.844148    1.123717
H     -2.925629    1.300002   -0.310097
H     -3.258707   -1.316377    1.265504
H     -4.345738    0.071768    1.325141
H     -4.053013   -2.106056   -2.111858
H     -3.762737   -0.368207   -2.249531
H     -1.605607   -1.682007   -2.237436
H     -2.049036   -2.339810   -0.644256
H     -0.849105    2.028228   -1.564891
H      0.593766    3.983541   -1.881378
H      2.907135    3.982587   -0.978254
H      3.754153    2.022097    0.226013

