%chk=opt.chk
%mem=2gb
%nproc=1
#p b3lyp 6-31G* opt scf(xqc,tight)

opt calculation

0 1
C      3.547208   -0.618097   -0.171292
O      3.066451    0.622206    0.327472
C      1.693499    0.834122   -0.011985
O      0.846855   -0.109602    0.636066
C     -0.493359   -0.019843    0.380362
C     -1.119448    0.943520   -0.412627
C     -2.506879    0.914004   -0.588469
C     -3.273023   -0.074586    0.026722
C     -2.653898   -1.035943    0.821099
C     -1.269483   -1.005923    0.996217
H      3.016891   -1.455978    0.290901
H      3.446735   -0.661725   -1.260137
H      4.607669   -0.700728    0.082170
H      1.446292    1.845418    0.329307
H      1.586303    0.781052   -1.102745
H     -0.564537    1.734282   -0.905902
H     -2.990783    1.666787   -1.205952
H     -4.350977   -0.093852   -0.111035
H     -3.245506   -1.807885    1.305833
H     -0.790010   -1.757229    1.619228

