%chk=opt.chk
%mem=2gb
%nproc=1
#p b3lyp 6-31G* opt scf(xqc,tight)

opt calculation

0 1
C      2.883968    0.429498    0.308329
O      2.039086   -0.530318   -0.313103
C      0.690419   -0.331742   -0.202926
C      0.067144    0.726165    0.463252
C     -1.329568    0.810806    0.500291
C     -2.095094   -0.164675   -0.130161
O     -3.457200   -0.118595   -0.117259
C     -1.488426   -1.221113   -0.795602
C     -0.095597   -1.302619   -0.830692
H      2.726441    0.451583    1.391736
H      3.920597    0.128326    0.129047
H      2.744839    1.422201   -0.132419
H      0.638225    1.500865    0.963494
H     -1.795986    1.639996    1.022708
H     -3.736834    0.667210    0.379782
H     -2.093367   -1.978423   -1.285177
H      0.381352   -2.129166   -1.351299

