%chk=opt.chk
%mem=2gb
%nproc=1
#p b3lyp 6-31G* opt scf(xqc,tight)

opt calculation

0 1
C     -4.305274   -0.812187   -0.027263
O     -3.461151    0.323281    0.086002
C     -2.081602   -0.041417    0.032473
O     -1.279246    1.130102    0.148873
C      0.077253    0.969877    0.105984
C      0.804236    2.158458    0.206187
C      2.198534    2.147183    0.180505
C      2.880030    0.939064    0.051474
C      2.169852   -0.265541   -0.058911
C      2.904314   -1.578164   -0.175389
F      4.113201   -1.466124   -0.792477
F      2.211009   -2.513184   -0.884637
F      3.152626   -2.141209    1.038788
C      0.762276   -0.239806   -0.022147
H     -4.145328   -1.315880   -0.985507
H     -4.126428   -1.507872    0.798302
H     -5.344391   -0.475515    0.019974
H     -1.887120   -0.529972   -0.929954
H     -1.868139   -0.720636    0.866598
H      0.275447    3.104060    0.307376
H      2.749481    3.080894    0.262715
H      3.969126    0.939429    0.035688
H      0.231296   -1.184840   -0.097152

