%chk=opt.chk
%mem=2gb
%nproc=1
#p b3lyp 6-31G* opt scf(xqc,tight)

opt calculation

0 1
C      3.769217    1.709057    0.427188
C      2.454721    1.749277   -0.335925
N      2.173170    0.509600   -1.058296
C      2.569101    0.400653   -2.457904
C      3.962654   -0.179564   -2.637077
C      1.651387   -0.616141   -0.423883
O      1.452594   -1.681247   -1.001066
O      1.395082   -0.387603    0.923887
C      0.727387   -1.425733    1.577650
C      1.433068   -2.176601    2.514481
C      0.776010   -3.196003    3.206710
C     -0.578437   -3.452718    2.966779
C     -1.287320   -2.685510    2.039975
C     -0.633229   -1.657831    1.365081
O     -1.352219   -0.927392    0.416163
C     -1.639915    0.382758    0.783780
O     -1.424096    0.859164    1.894442
N     -2.215310    1.107174   -0.258415
C     -2.515188    0.500760   -1.554650
C     -3.805134   -0.304158   -1.551993
C     -2.647767    2.476138   -0.000633
C     -4.026836    2.553355    0.634151
H      3.800430    0.871458    1.130870
H      3.903568    2.635379    0.994549
H      4.620331    1.606490   -0.251073
H      2.452751    2.584013   -1.045201
H      1.637187    1.936424    0.369682
H      1.850477   -0.246951   -2.973948
H      2.500263    1.387180   -2.928718
H      4.184495   -0.306113   -3.701398
H      4.053767   -1.156014   -2.150766
H      4.725400    0.478987   -2.213314
H      2.483320   -1.975815    2.700634
H      1.319593   -3.793719    3.934158
H     -1.081498   -4.252001    3.505299
H     -2.337624   -2.884507    1.852202
H     -2.560291    1.287893   -2.315076
H     -1.683973   -0.156760   -1.833967
H     -4.671797    0.333343   -1.358499
H     -3.952465   -0.782276   -2.525501
H     -3.789307   -1.086961   -0.787346
H     -1.924176    2.949020    0.673839
H     -2.623795    3.043052   -0.937477
H     -4.797525    2.172008   -0.040875
H     -4.275116    3.592614    0.871440
H     -4.072952    1.971240    1.560041

