%chk=opt.chk
%mem=2gb
%nproc=1
#p b3lyp 6-31G* opt scf(xqc,tight)

opt calculation

0 1
C      6.546510   -0.601595    0.163836
O      5.550810    0.091166   -0.578137
C      4.246929   -0.162934   -0.251268
C      3.805823   -1.036835    0.739546
C      2.435582   -1.202868    0.969950
C      1.485301   -0.498909    0.214171
C      0.104963   -0.656371    0.434910
C     -0.848580    0.049472   -0.318741
C     -2.289128   -0.127651   -0.074317
C     -2.878533   -1.400603   -0.122442
C     -4.246590   -1.567670    0.101278
C     -5.048837   -0.463459    0.382997
C     -4.488450    0.815411    0.453518
C     -5.352076    2.011056    0.726441
C     -3.115366    0.973550    0.211169
C     -0.387065    0.926624   -1.309988
C      0.981225    1.094006   -1.543609
C      1.928273    0.387685   -0.788802
C      3.307155    0.542938   -1.008253
H      7.524072   -0.289865   -0.216479
H      6.463625   -1.684102    0.021049
H      6.502869   -0.337545    1.225651
H      4.497233   -1.605199    1.352157
H      2.114740   -1.890608    1.749543
H     -0.236100   -1.333020    1.217041
H     -2.272548   -2.274493   -0.352935
H     -4.686783   -2.560010    0.049628
H     -6.114190   -0.607326    0.547880
H     -4.792133    2.781490    1.266890
H     -6.211824    1.739290    1.347885
H     -5.716082    2.432323   -0.215650
H     -2.678980    1.970262    0.257914
H     -1.096108    1.481791   -1.921082
H      1.301017    1.780850   -2.324124
H      3.663246    1.223150   -1.779119

