%chk=opt.chk
%mem=2gb
%nproc=1
#p b3lyp 6-31G* opt scf(xqc,tight)

opt calculation

0 1
C      3.866201    1.033390    0.928805
C      3.649084   -0.338112    0.299901
C      4.124301   -0.382207   -1.147790
C      2.193372   -0.756180    0.403320
O      1.817308   -1.741129    1.026666
O      1.389951    0.136013   -0.300142
C      0.019071   -0.146769   -0.291286
C     -0.481517   -1.291652   -0.903383
C     -1.859923   -1.506886   -0.920682
C     -2.740485   -0.574597   -0.344658
C     -4.129432   -0.778905   -0.355887
C     -4.993359    0.157039    0.215297
C     -4.480811    1.309101    0.804566
C     -3.102561    1.528564    0.825423
C     -2.219175    0.596832    0.256779
C     -0.831560    0.803538    0.270918
H      3.489044    1.053680    1.957029
H      3.346667    1.820692    0.371765
H      4.931724    1.284444    0.952340
H      4.229651   -1.072478    0.872708
H      3.611978    0.364229   -1.764549
H      3.930166   -1.365002   -1.590902
H      5.200236   -0.188284   -1.208412
H      0.186672   -2.017898   -1.355730
H     -2.244680   -2.410346   -1.388412
H     -4.549842   -1.672798   -0.811232
H     -6.066416   -0.015106    0.199866
H     -5.153225    2.037683    1.249898
H     -2.721788    2.434188    1.292198
H     -0.410651    1.698958    0.719302

