%chk=opt.chk
%mem=2gb
%nproc=1
#p b3lyp 6-31G* opt scf(xqc,tight)

opt calculation

0 1
C      3.206030   -2.177456    0.111955
O      2.788485   -0.819109    0.119272
C      1.438543   -0.556284    0.058322
C      0.460001   -1.548493   -0.010092
C     -0.899734   -1.225327   -0.070291
C     -1.851121   -2.259404   -0.138227
C     -3.214007   -1.983763   -0.199559
C     -3.643052   -0.666804   -0.193670
C     -2.706952    0.369546   -0.126435
C     -1.309062    0.130147   -0.062637
C     -0.309911    1.164031    0.007651
C     -0.620189    2.549559    0.020801
C      0.362092    3.540408    0.089379
C      1.695967    3.180134    0.147540
C      2.039784    1.830712    0.136779
C      1.065417    0.807074    0.067922
H      4.298946   -2.190637    0.165395
H      2.825034   -2.712684    0.987823
H      2.913784   -2.675675   -0.818176
H      0.737619   -2.597631   -0.017942
H     -1.533904   -3.300503   -0.143964
H     -3.934473   -2.795266   -0.251589
H     -4.704331   -0.437333   -0.241127
H     -3.099690    1.382159   -0.124995
H     -1.650512    2.890370   -0.022842
H      0.077741    4.589112    0.096901
H      2.470563    3.939713    0.201172
H      3.096938    1.573408    0.183455

