%chk=opt.chk
%mem=2gb
%nproc=1
#p b3lyp 6-31G* opt scf(xqc,tight)

opt calculation

0 1
C      6.549030   -1.842909    0.932723
O      5.148330   -1.841803    1.177090
C      4.378322   -1.058172    0.361980
C      4.839487   -0.264097   -0.685319
C      3.937936    0.491628   -1.442867
C      2.562831    0.464787   -1.165097
C      1.648609    1.217679   -1.915090
C      0.282161    1.177556   -1.622988
C     -0.209438    0.384213   -0.574969
N     -1.621585    0.341244   -0.275503
C     -2.405131    1.553431   -0.319215
C     -3.701179    1.558589   -0.864836
C     -4.458737    2.732061   -0.908318
C     -3.933746    3.920287   -0.406004
C     -2.652306    3.937204    0.139364
C     -1.894236    2.764032    0.181911
C     -2.249642   -0.913344    0.067193
C     -3.219235   -0.983980    1.083373
C     -3.825348   -2.198248    1.416718
C     -3.472991   -3.362913    0.739218
C     -2.515325   -3.315462   -0.270838
C     -1.908709   -2.101361   -0.603815
C      0.712798   -0.368205    0.174640
C      2.090347   -0.338495   -0.106535
C      3.009409   -1.090254    0.644500
H      6.775297   -2.231317   -0.065783
H      7.015215   -2.511272    1.663068
H      6.975577   -0.844528    1.075456
H      5.891908   -0.207613   -0.941461
H      4.321157    1.104828   -2.255696
H      1.990225    1.841108   -2.738157
H     -0.402426    1.759641   -2.235717
H     -4.123452    0.645575   -1.278148
H     -5.456912    2.715780   -1.337870
H     -4.523293    4.832766   -0.439110
H     -2.241110    4.861511    0.536520
H     -0.903206    2.795681    0.628690
H     -3.495799   -0.090264    1.637887
H     -4.568858   -2.232153    2.208651
H     -3.943973   -4.307406    0.998756
H     -2.239810   -4.221682   -0.803804
H     -1.175829   -2.084959   -1.407127
H      0.353105   -0.974655    1.003802
H      2.660534   -1.714510    1.464793

