%chk=opt.chk
%mem=2gb
%nproc=1
#p b3lyp 6-31G* opt scf(xqc,tight)

opt calculation

0 1
C     -4.880449   -0.300947   -0.237296
O     -3.718388   -0.941844    0.273449
C     -2.512563   -0.375044   -0.037037
C     -2.319137    0.770138   -0.806138
C     -1.024598    1.243442   -1.047227
C      0.095656    0.579773   -0.523604
C      1.401711    1.042077   -0.756460
C      2.512563    0.375046   -0.231137
O      3.718388    0.941845   -0.541625
C      4.880450    0.300943   -0.030887
C      2.319137   -0.770135    0.537965
C      1.024598   -1.243439    0.779054
C     -0.095657   -0.579770    0.255430
C     -1.401712   -1.042076    0.488286
H     -4.976997    0.715480    0.158473
H     -5.751614   -0.872313    0.097457
H     -4.882741   -0.301665   -1.332319
H     -3.149798    1.320677   -1.234268
H     -0.896912    2.139733   -1.650673
H      1.565306    1.935349   -1.355578
H      4.882746    0.301655    1.064135
H      5.751614    0.872309   -0.365640
H      4.976994   -0.715483   -0.426662
H      3.149798   -1.320674    0.966095
H      0.896912   -2.139730    1.382500
H     -1.565308   -1.935348    1.087403

