%chk=opt.chk
%mem=2gb
%nproc=1
#p b3lyp 6-31G* opt scf(xqc,tight)

opt calculation

0 1
C      4.703861   -0.210206   -0.383125
C      3.244383    0.027928   -0.133398
C      2.814022    1.201615    0.493880
C      1.451730    1.433735    0.696121
C      0.503617    0.504532    0.266352
O     -0.799871    0.831812    0.514826
Si    -2.269536    0.100090    0.223602
C     -2.562284   -0.146531   -1.617291
C     -2.391738   -1.565835    1.086788
C     -3.661376    1.189781    0.883280
C      0.924031   -0.660012   -0.372344
C      2.288286   -0.893994   -0.575588
H      4.930966   -1.281476   -0.379333
H      4.990941    0.209178   -1.352255
H      5.314760    0.253580    0.398495
H      3.534536    1.943188    0.830532
H      1.127661    2.346268    1.189478
H     -1.821425   -0.827221   -2.045539
H     -3.555728   -0.569480   -1.793903
H     -2.497210    0.808739   -2.146456
H     -2.225302   -1.452787    2.162108
H     -3.383523   -2.002897    0.937305
H     -1.648584   -2.266441    0.696285
H     -3.548160    1.343155    1.960414
H     -4.633749    0.723475    0.699885
H     -3.647129    2.166667    0.391296
H      0.217336   -1.402126   -0.725698
H      2.599485   -1.804738   -1.082585

