%chk=opt.chk
%mem=2gb
%nproc=1
#p b3lyp 6-31G* opt scf(xqc,tight)

opt calculation

0 1
C     -4.487314    0.416575   -0.983923
Si    -3.859955   -0.533762    0.512313
C     -3.406553   -2.278438   -0.021916
C     -5.282764   -0.664231    1.744666
O     -2.568439    0.240261    1.228841
C     -1.311895    0.591498    0.821723
C     -0.790786    0.352028   -0.447571
C      0.512394    0.755308   -0.756897
C      1.310534    1.399185    0.199545
C      2.717584    1.838524   -0.138800
C      3.664087    0.702165   -0.454980
C      4.005444   -0.237633    0.528908
C      4.883036   -1.283004    0.237164
C      5.430872   -1.398858   -1.038721
C      5.101668   -0.470115   -2.024071
C      4.223413    0.575842   -1.734664
C      0.776302    1.637601    1.472002
C     -0.525735    1.235078    1.778098
H     -3.724249    0.468004   -1.765388
H     -4.759388    1.437980   -0.701965
H     -5.372420   -0.070684   -1.403650
H     -2.628165   -2.264773   -0.789742
H     -4.280669   -2.792855   -0.432160
H     -3.037564   -2.856059    0.830726
H     -4.972899   -1.232330    2.626598
H     -6.139369   -1.170122    1.289817
H     -5.599913    0.331395    2.068238
H     -1.369650   -0.146753   -1.216427
H      0.905845    0.555932   -1.751595
H      2.661648    2.537144   -0.983986
H      3.147244    2.418740    0.688432
H      3.582138   -0.162898    1.528272
H      5.136785   -2.007991    1.005970
H      6.113441   -2.213528   -1.265116
H      5.529019   -0.560402   -3.019241
H      3.977945    1.291219   -2.516163
H      1.368000    2.136284    2.235934
H     -0.929673    1.423672    2.769334

