%chk=opt.chk
%mem=2gb
%nproc=1
#p b3lyp 6-31G* opt scf(xqc,tight)

opt calculation

0 1
C     -3.721626    0.460211   -1.798207
C     -3.208678    1.334742   -0.665520
N     -2.239561    0.654367    0.187836
C     -2.720937   -0.089102    1.350809
C     -2.938778   -1.567002    1.066190
C     -0.906779    0.620764   -0.217563
O     -0.498769    1.172975   -1.235045
O     -0.105707   -0.107345    0.658759
C      1.238488   -0.193590    0.281105
C      1.622494   -1.101443   -0.721697
C      2.970962   -1.224963   -1.064090
C      3.879881   -0.444610   -0.378483
C      3.491037    0.428584    0.613944
C      2.170771    0.575833    0.977459
O      4.544949    1.089823    1.163932
C      5.637540    0.549224    0.392317
O      5.225653   -0.437429   -0.576175
H     -4.290930   -0.391459   -1.416740
H     -4.383530    1.038279   -2.450713
H     -2.898653    0.070101   -2.405457
H     -4.040469    1.692352   -0.049113
H     -2.730661    2.222117   -1.096990
H     -3.648778    0.369507    1.709469
H     -1.987341    0.013770    2.158425
H     -2.027333   -2.043150    0.691634
H     -3.723898   -1.718046    0.320840
H     -3.242202   -2.085654    1.981057
H      0.873710   -1.697940   -1.234805
H      3.294358   -1.908376   -1.840640
H      1.873784    1.259395    1.762313
H      6.135528    1.371481   -0.134531
H      6.355472    0.086586    1.079247

