%chk=opt.chk
%mem=2gb
%nproc=1
#p b3lyp 6-31G* opt scf(xqc,tight)

opt calculation

0 1
C     -4.368193    0.052983   -1.575175
C     -2.869942    0.007269   -1.522357
O     -2.152005   -0.199138   -2.491072
O     -2.462931    0.236348   -0.211605
C     -1.079809    0.225414    0.001908
C     -0.322876   -0.925865   -0.211673
C      1.048657   -0.908448    0.058444
C      1.653365    0.253916    0.557516
C      3.114028    0.322589    0.862131
C      3.986268   -0.858616    0.526120
O      3.584479    1.331930    1.383241
C      0.869416    1.394913    0.790673
C     -0.499778    1.380635    0.518583
H     -4.720145    1.039462   -1.263226
H     -4.785634   -0.726680   -0.933148
H     -4.699743   -0.126698   -2.601891
H     -0.787952   -1.829790   -0.595224
H      1.619077   -1.813713   -0.126758
H      3.908055   -1.099962   -0.537141
H      5.030213   -0.605201    0.736006
H      3.711981   -1.717791    1.143471
H      1.324785    2.301331    1.186486
H     -1.101315    2.265112    0.706697

