%chk=opt.chk
%mem=2gb
%nproc=1
#p b3lyp 6-31G* opt scf(xqc,tight)

opt calculation

0 1
C     -2.448824   -2.090852   -1.311374
C     -3.008536   -0.690574   -1.596518
C     -4.357990   -0.818294   -2.311014
Si    -3.078108    0.464017    0.018036
C     -1.430288    0.240984    0.991293
C     -1.394557    0.040581    2.377048
C     -0.176911   -0.127748    3.047587
C      1.040418   -0.101160    2.354223
C      2.268671   -0.268165    3.019597
C      3.471085   -0.239505    2.312688
C      3.441105   -0.053539    0.935982
O      4.654616    0.038555    0.251425
C      4.968897   -1.083714   -0.512574
O      4.293111   -2.100964   -0.604131
C      6.294058   -0.850412   -1.249064
C      6.694128   -2.133934   -1.996038
C      6.111648    0.284696   -2.265532
C      7.397853   -0.495379   -0.243975
C      2.239716    0.130653    0.253416
C      1.026456    0.100188    0.956075
C     -0.204037    0.267863    0.296501
C     -3.175934    2.382359   -0.558931
C     -4.551998    2.777303   -1.107914
C     -2.087513    2.765511   -1.568775
C     -4.688039    0.068278    1.058865
C     -4.758788   -1.365718    1.592171
C     -4.960175    1.062186    2.195272
H     -1.457234   -2.051235   -0.851576
H     -2.350078   -2.657972   -2.243674
H     -3.101387   -2.663399   -0.647479
H     -2.308344   -0.183785   -2.270763
H     -4.743843    0.153663   -2.625018
H     -4.254315   -1.430574   -3.214493
H     -5.111059   -1.293307   -1.672952
H     -2.302338    0.001481    2.970166
H     -0.189940   -0.282780    4.125267
H      2.293461   -0.419404    4.097636
H      4.414979   -0.363084    2.833527
H      7.643616   -2.004158   -2.529857
H      5.931628   -2.419073   -2.732536
H      6.811012   -2.976594   -1.304820
H      5.869457    1.232414   -1.773282
H      7.020641    0.441078   -2.853324
H      5.295337    0.062988   -2.959477
H      7.493030   -1.268763    0.527233
H      7.189114    0.452050    0.267976
H      8.368993   -0.391881   -0.742910
H      2.252128    0.290753   -0.821002
H     -0.195465    0.409388   -0.782915
H     -3.001874    2.943696    0.369225
H     -4.781985    2.258269   -2.043735
H     -4.585170    3.855375   -1.312626
H     -5.355539    2.559220   -0.396664
H     -1.081545    2.586179   -1.172452
H     -2.151656    3.832883   -1.812555
H     -2.191270    2.203904   -2.505497
H     -5.503900    0.182728    0.334695
H     -3.945702   -1.589524    2.288768
H     -4.717078   -2.097399    0.780501
H     -5.703173   -1.531380    2.122254
H     -4.935331    2.101851    1.848999
H     -4.238776    0.968629    3.013230
H     -5.956458    0.884548    2.619282

