%chk=opt.chk
%mem=2gb
%nproc=1
#p b3lyp 6-31G* opt scf(xqc,tight)

opt calculation

0 1
C     -4.160474    1.678991    0.632546
C     -3.861717    0.301140    1.201018
N     -2.827978   -0.412395    0.457784
C     -3.223020   -1.263413   -0.663162
C     -3.164160   -0.550047   -2.004957
C     -1.492788   -0.141554    0.751743
O     -1.143012    0.632175    1.637897
O     -0.617056   -0.843150   -0.074421
C      0.747446   -0.635450    0.161449
C      1.346547   -1.096162    1.329511
C      2.719695   -0.922155    1.503767
C      3.498068   -0.305415    0.508473
C      4.880838   -0.124720    0.670856
C      5.643270    0.485269   -0.326799
C      5.034147    0.922308   -1.499499
C      3.660426    0.751503   -1.678087
C      2.878333    0.141034   -0.684387
C      1.496657   -0.036790   -0.849789
H     -4.588206    1.611103   -0.371136
H     -3.254823    2.290798    0.571835
H     -4.883051    2.200432    1.268183
H     -4.770753   -0.309376    1.226647
H     -3.528358    0.415349    2.239256
H     -4.232387   -1.648162   -0.481477
H     -2.556392   -2.132754   -0.692482
H     -3.412677   -1.246110   -2.812296
H     -2.167162   -0.143645   -2.201312
H     -3.875896    0.278410   -2.047730
H      0.755310   -1.576528    2.102945
H      3.180599   -1.271789    2.424705
H      5.375517   -0.458784    1.580116
H      6.712652    0.619278   -0.186418
H      5.627303    1.398143   -2.275998
H      3.202654    1.101606   -2.600493
H      1.000450    0.290858   -1.758708

