%chk=opt.chk
%mem=2gb
%nproc=1
#p b3lyp 6-31G* opt scf(xqc,tight)

opt calculation

0 1
C      4.173466   -0.109133   -0.977531
N      3.517258    0.597376    0.108427
C      4.155864    1.808861    0.584482
C      2.199925    0.344012    0.479263
O      1.585234    1.029335    1.291034
O      1.669213   -0.765413   -0.176295
C      0.330450   -1.080470    0.099424
C      0.064756   -2.332867    0.633684
C     -1.257502   -2.696767    0.845546
C     -2.294211   -1.809461    0.517285
C     -2.051342   -0.531228   -0.023405
N     -3.087199    0.353341   -0.367379
C     -4.466462   -0.015707   -0.056744
C     -2.791479    1.785256   -0.268710
C     -0.702514   -0.202161   -0.248265
H      5.238954   -0.208924   -0.750610
H      3.757039   -1.108021   -1.126780
H      4.046598    0.470871   -1.896326
H      3.659891    2.207012    1.473690
H      4.116334    2.560402   -0.209635
H      5.198868    1.591427    0.832261
H      0.872292   -3.015399    0.876102
H     -1.494068   -3.671491    1.263458
H     -3.306573   -2.152041    0.708254
H     -5.166756    0.724115   -0.461084
H     -4.737667   -0.970032   -0.521373
H     -4.627491   -0.072226    1.025468
H     -2.074020    2.097971   -1.034234
H     -3.691987    2.386584   -0.438676
H     -2.406859    2.043418    0.724496
H     -0.430015    0.741359   -0.707664

