%chk=opt.chk
%mem=2gb
%nproc=1
#p b3lyp 6-31G* opt scf(xqc,tight)

opt calculation

0 1
C     -6.068785   -1.325151   -0.684356
C     -5.512268   -1.202425    0.725545
N     -4.941671    0.113973    1.004692
C     -5.778374    1.125736    1.642186
C     -6.539573    1.983303    0.644204
C     -3.674831    0.486276    0.558477
O     -3.212331    1.612435    0.711941
O     -3.011911   -0.560171   -0.076933
C     -1.721834   -0.251033   -0.540919
C     -1.603194    0.504349   -1.709472
C     -0.339235    0.775952   -2.216174
C      0.791664    0.278993   -1.564297
C      0.684302   -0.504044   -0.392072
C      1.806379   -1.029402    0.284617
O      3.091193   -0.817216   -0.243106
C      3.856856    0.121238    0.442987
O      3.488433    0.720522    1.448281
N      5.107697    0.304861   -0.138357
C      5.523659   -0.385023   -1.356319
C      6.162612   -1.729686   -1.049403
C      6.046560    1.230102    0.484775
C      5.900679    2.638064   -0.069853
C      1.684916   -1.831998    1.420845
C      0.421148   -2.099793    1.930017
C     -0.708326   -1.579948    1.293637
C     -0.600048   -0.782819    0.131057
H     -6.430864   -2.343268   -0.858652
H     -5.307691   -1.101217   -1.438221
H     -6.906373   -0.641091   -0.843396
H     -4.731193   -1.957999    0.867405
H     -6.293838   -1.417000    1.462393
H     -5.137457    1.777706    2.247373
H     -6.471198    0.634140    2.333603
H     -7.264310    1.389563    0.080977
H     -5.862197    2.457000   -0.073430
H     -7.089396    2.772134    1.167157
H     -2.487176    0.885873   -2.211025
H     -0.229300    1.376033   -3.115327
H      1.770778    0.508921   -1.979277
H      6.226460    0.253784   -1.902460
H      4.656188   -0.533796   -2.008156
H      7.049485   -1.608852   -0.418898
H      5.465538   -2.387743   -0.520532
H      6.466512   -2.226640   -1.975724
H      7.065525    0.859368    0.328341
H      5.873704    1.251394    1.566639
H      6.089809    2.659329   -1.147946
H      6.611665    3.313635    0.415436
H      4.890311    3.024948    0.098754
H      2.567843   -2.233117    1.908766
H      0.310495   -2.709143    2.822832
H     -1.687034   -1.801054    1.714516

