%chk=opt.chk
%mem=2gb
%nproc=1
#p b3lyp 6-31G* opt scf(xqc,tight)

opt calculation

0 1
C      7.440886    0.680235    1.153663
O      6.088891    0.973832    1.470058
C      5.192159    0.412487    0.510141
O      3.852057    0.729050    0.874451
C      2.856884    0.258739    0.062821
C      3.027907   -0.483836   -1.103702
C      1.913531   -0.899907   -1.841361
C      0.611962   -0.581688   -1.425782
C     -0.513638   -0.990514   -2.162423
C     -1.801474   -0.665531   -1.735329
C     -1.964101    0.055763   -0.556690
O     -3.235382    0.452214   -0.118849
C     -4.132350   -0.564599    0.204891
O     -3.868442   -1.762032    0.152856
N     -5.370044   -0.071076    0.606032
C     -5.611493    1.343070    0.831669
C     -6.350608   -0.997541    1.137799
C     -0.864860    0.489955    0.182007
C      0.433995    0.169736   -0.241306
C      1.563373    0.580763    0.485395
H      7.708339    1.102711    0.180261
H      7.609678   -0.400984    1.154074
H      8.079784    1.132569    1.916916
H      5.420968    0.843049   -0.472193
H      5.327159   -0.675883    0.501902
H      4.009231   -0.759342   -1.474081
H      2.071284   -1.478614   -2.749182
H     -0.394429   -1.567048   -3.076889
H     -2.663398   -0.983307   -2.314122
H     -4.959672    1.971266    0.220057
H     -5.429897    1.562721    1.887820
H     -6.650640    1.575924    0.581389
H     -6.318584   -0.951900    2.230454
H     -6.152315   -2.024756    0.820375
H     -7.345491   -0.707897    0.787326
H     -1.024475    1.072242    1.085228
H      1.443203    1.160128    1.398945

