%chk=opt.chk
%mem=2gb
%nproc=1
#p b3lyp 6-31G* opt scf(xqc,tight)

opt calculation

0 1
C      3.345748   -0.147483   -0.605224
O      2.489710    0.586965    0.260807
C      1.150752    0.323197    0.177684
C      0.354323    1.068252    1.050263
C     -1.032609    0.900202    1.071752
C     -1.647133   -0.026875    0.219500
C     -3.146093   -0.198235    0.220322
F     -3.761687    0.622759   -0.674519
F     -3.716653    0.069571    1.428247
F     -3.538640   -1.462873   -0.101950
C     -0.843601   -0.766364   -0.661437
C      0.545878   -0.595110   -0.680100
H      3.120217    0.064220   -1.655637
H      3.291110   -1.221137   -0.397004
H      4.373144    0.176792   -0.413580
H      0.819967    1.788500    1.719484
H     -1.629898    1.496673    1.759687
H     -1.298553   -1.485959   -1.341250
H      1.124019   -1.193096   -1.377046

