%chk=opt.chk
%mem=2gb
%nproc=1
#p b3lyp 6-31G* opt scf(xqc,tight)

opt calculation

0 1
C      1.919910    2.956080   -2.356252
O      0.863617    2.141325   -1.864104
C      1.283118    1.194334   -0.954081
N      2.563915    1.125104   -0.615264
C      2.842138    0.174974    0.266052
O      4.173642    0.101333    0.616500
C      4.454345   -0.928741    1.555530
N      1.969597   -0.665871    0.806742
C      0.720149   -0.490518    0.391139
O     -0.196323   -1.380925    0.943318
C     -1.519754   -1.146105    0.668560
C     -2.166649   -1.958658   -0.262436
C     -3.524627   -1.763184   -0.523630
C     -4.234584   -0.766991    0.158512
C     -5.628744   -0.566486   -0.110318
N     -6.758082   -0.406802   -0.325341
C     -3.581808    0.028194    1.108881
C     -2.223899   -0.166572    1.371028
N      0.315221    0.418153   -0.490303
H      2.665685    2.359649   -2.893382
H      2.384754    3.534712   -1.550341
H      1.488897    3.666760   -3.068173
H      5.528369   -0.906173    1.764367
H      3.928751   -0.758584    2.501664
H      4.216743   -1.916596    1.145554
H     -1.616333   -2.734645   -0.787729
H     -4.023021   -2.391465   -1.259539
H     -4.124825    0.801079    1.649681
H     -1.720203    0.446620    2.113365

