%chk=opt.chk
%mem=2gb
%nproc=1
#p b3lyp 6-31G* opt scf(xqc,tight)

opt calculation

0 1
C      6.800762   -1.141892   -0.098028
N      5.833725   -0.090175    0.149287
C      6.277531    1.276001   -0.066266
C      4.490999   -0.431570    0.279833
O      4.092483   -1.591618    0.326746
O      3.662951    0.687599    0.341281
C      2.298166    0.418524    0.495475
C      1.804443   -0.056976    1.705764
C      0.431757   -0.262750    1.845323
C     -0.450540    0.019346    0.787048
C     -1.836351   -0.185346    0.916521
C     -2.721152    0.099370   -0.139170
Si    -4.601220   -0.185406    0.034416
C     -5.107545   -1.575151   -1.123890
C     -5.055211   -0.644977    1.795998
C     -5.504496    1.392773   -0.442643
C     -2.192729    0.595615   -1.340534
C     -0.817894    0.803901   -1.482303
C      0.064894    0.520538   -0.430943
C      1.446735    0.724278   -0.564009
H      7.034231   -1.157440   -1.166826
H      7.710099   -0.934999    0.473883
H      6.418401   -2.123708    0.194896
H      5.575646    2.003773    0.346479
H      6.374197    1.444859   -1.142734
H      7.248614    1.419892    0.416383
H      2.476046   -0.276218    2.529745
H      0.052583   -0.647490    2.789094
H     -2.217682   -0.574902    1.858934
H     -4.586921   -2.502321   -0.865571
H     -6.184177   -1.757327   -1.057241
H     -4.867156   -1.323431   -2.161214
H     -6.136741   -0.783064    1.887845
H     -4.568476   -1.578326    2.095170
H     -4.752954    0.141513    2.494282
H     -5.191341    2.225105    0.195189
H     -6.585174    1.263486   -0.330673
H     -5.299321    1.660341   -1.483636
H     -2.839231    0.825770   -2.185758
H     -0.441005    1.188017   -2.427534
H      1.863052    1.114386   -1.488122

