%chk=opt.chk
%mem=2gb
%nproc=1
#p b3lyp 6-31G* opt scf(xqc,tight)

opt calculation

0 1
C     -4.187102   -0.771924   -1.412129
Si    -2.675193   -0.079250   -0.530305
C     -2.435568    1.700741   -1.087509
C     -3.019466   -0.086087    1.318749
O     -1.325700   -1.012934   -0.891919
C     -0.050602   -0.856035   -0.421388
C      0.366418   -1.605682    0.673298
C      1.671458   -1.466111    1.147284
C      2.571251   -0.587048    0.521485
C      3.887107   -0.434179    0.986786
C      4.771991    0.438364    0.350987
C      4.353942    1.167949   -0.758150
C      3.049414    1.027989   -1.234341
C      2.145773    0.156433   -0.605380
C      0.830729    0.005996   -1.072105
H     -5.073952   -0.173552   -1.183793
H     -4.375621   -1.802451   -1.097279
H     -4.035505   -0.764831   -2.495467
H     -1.598606    2.163264   -0.556279
H     -2.227876    1.742552   -2.160731
H     -3.335273    2.290282   -0.888024
H     -3.918630    0.494616    1.544694
H     -2.181332    0.351271    1.869178
H     -3.170785   -1.108500    1.677187
H     -0.317685   -2.296166    1.157366
H      1.983972   -2.053080    2.007782
H      4.233721   -0.997169    1.850450
H      5.787946    0.546228    0.721787
H      5.042913    1.846295   -1.254576
H      2.741677    1.606032   -2.102837
H      0.490584    0.556987   -1.944501

