%chk=opt.chk
%mem=2gb
%nproc=1
#p b3lyp 6-31G* opt scf(xqc,tight)

opt calculation

0 1
C      4.624202    0.368870   -0.192401
O      3.576598    0.371361   -1.153650
C      2.302458    0.237685   -0.676961
C      1.933297    0.099644    0.656821
C      0.581491   -0.029049    1.004405
C     -0.438682   -0.023747    0.033569
C     -1.910755   -0.167574    0.456390
C     -2.905405   -0.142836   -0.726238
C     -2.295422    0.991960    1.400536
C     -2.110663   -1.509817    1.192814
C     -0.043277    0.116636   -1.304991
C      1.307324    0.245204   -1.652152
H      4.528950    1.213623    0.497852
H      4.661541   -0.582419    0.348698
H      5.570800    0.483342   -0.729346
H      2.666537    0.087424    1.455852
H      0.336614   -0.134753    2.059344
H     -3.939075   -0.248311   -0.375381
H     -2.718461   -0.964028   -1.428004
H     -2.848805    0.800722   -1.281462
H     -3.351235    0.932556    1.689754
H     -2.135966    1.963350    0.917557
H     -1.709317    0.984867    2.326047
H     -1.520744   -1.569178    2.114014
H     -3.160274   -1.653377    1.474993
H     -1.816997   -2.355018    0.559026
H     -0.767446    0.130399   -2.114444
H      1.582714    0.352464   -2.698667

