%chk=opt.chk
%mem=2gb
%nproc=1
#p b3lyp 6-31G* opt scf(xqc,tight)

opt calculation

0 1
C     -4.522660    1.429475   -0.544787
C     -4.439921    0.144608    0.264516
C     -3.358982   -0.816312   -0.227751
C     -1.939269   -0.274843   -0.070876
O     -1.035136   -1.304647   -0.474288
C      0.302184   -1.025729   -0.403319
C      1.134290   -2.069409   -0.807561
C      2.522713   -1.922579   -0.786607
C      3.105186   -0.721876   -0.358366
C      4.499155   -0.554300   -0.329930
C      5.064081    0.647481    0.099062
C      4.243332    1.695458    0.504485
C      2.855716    1.543974    0.481827
C      2.269378    0.341276    0.053027
C      0.871495    0.174981    0.025158
H     -5.372122    2.031849   -0.207008
H     -3.619886    2.036072   -0.427702
H     -4.661240    1.215408   -1.609217
H     -5.409315   -0.364938    0.209868
H     -4.269572    0.388702    1.319509
H     -3.441630   -1.759414    0.327590
H     -3.535855   -1.078730   -1.278436
H     -1.803117    0.604805   -0.709617
H     -1.763680   -0.011388    0.978920
H      0.697800   -3.007175   -1.142508
H      3.144111   -2.754980   -1.107970
H      5.156426   -1.362362   -0.643143
H      6.144538    0.763808    0.116104
H      4.681869    2.632028    0.838838
H      2.232734    2.375747    0.802927
H      0.247379    1.003010    0.344730

