%chk=opt.chk
%mem=2gb
%nproc=1
#p b3lyp 6-31G* opt scf(xqc,tight)

opt calculation

0 1
C      1.978665    1.149722   -0.013998
C      2.377161   -0.189490   -0.165872
C      1.425397   -1.209192   -0.233254
C      0.095686   -0.856310   -0.135549
C     -0.304990    0.462773    0.011832
C      0.624298    1.485709    0.069369
C     -1.782859    0.524521    0.012266
C     -2.085330   -0.958826    0.230911
O     -0.946544   -1.745051   -0.192748
H      2.732807    1.932078    0.030311
H      3.434473   -0.432758   -0.235555
H      1.718153   -2.245615   -0.355354
H      0.316486    2.521363    0.168665
H     -2.200896    1.147094    0.807245
H     -2.148549    0.862502   -0.962617
H     -2.262140   -1.173192    1.292842
H     -2.971818   -1.275329   -0.328496

