%chk=opt.chk
%mem=2gb
%nproc=1
#p b3lyp 6-31G* opt scf(xqc,tight)

opt calculation

0 1
C      3.592964   -0.006003   -0.016198
O      2.479124   -0.687581   -0.577927
C      1.233714   -0.250034   -0.211196
C      0.962769    0.803014    0.662901
C     -0.354448    1.170815    0.972017
C     -1.389877    0.445544    0.373812
N     -2.755172    0.579593    0.489236
C     -3.389550   -0.356019   -0.284647
C     -2.422832   -1.108600   -0.911750
C     -1.154377   -0.611660   -0.503621
C      0.177567   -0.961235   -0.797669
H      3.604711    1.046766   -0.317182
H      4.502239   -0.473271   -0.406524
H      3.609055   -0.106916    1.074035
H      1.761417    1.369937    1.130534
H     -0.555685    1.991269    1.653015
H     -3.216673    1.270826    1.063887
H     -4.469336   -0.405520   -0.322325
H     -2.604321   -1.929989   -1.592328
H      0.388711   -1.780934   -1.478072

