%chk=opt.chk
%mem=2gb
%nproc=1
#p b3lyp 6-31G* opt scf(xqc,tight)

opt calculation

0 1
C     -5.745093   -0.098245    1.163997
C     -5.180741   -0.609562   -0.168044
C     -5.484133    0.384551   -1.296758
C     -5.835692   -1.959491   -0.502465
C     -3.663807   -0.796418   -0.044301
O     -3.079637   -1.862731   -0.191163
O     -3.064540    0.425829    0.260655
C     -1.671088    0.405067    0.391516
C     -1.134982    0.756689    1.625159
C      0.250876    0.801928    1.778066
C      1.103291    0.510399    0.698486
C      2.502064    0.551432    0.838903
C      3.362387    0.266394   -0.235837
C      4.824229    0.313265   -0.069232
C      5.626434    1.095339   -0.920889
C      7.016020    1.143966   -0.765938
C      7.626435    0.408347    0.245723
C      6.843315   -0.366905    1.090948
F      7.429645   -1.076623    2.064221
C      5.460053   -0.420493    0.944228
C      2.786709   -0.065173   -1.470422
C      1.398420   -0.112153   -1.629856
C      0.544399    0.172937   -0.555963
C     -0.850494    0.130918   -0.702011
H     -5.483243   -0.772908    1.987222
H     -5.349248    0.891570    1.417733
H     -6.837159   -0.017061    1.127011
H     -6.563475    0.489047   -1.453803
H     -5.034511    0.056865   -2.241174
H     -5.084973    1.380971   -1.076291
H     -6.922853   -1.861552   -0.598567
H     -5.451771   -2.364427   -1.446063
H     -5.634649   -2.702766    0.277831
H     -1.784726    0.991691    2.462500
H      0.664309    1.069114    2.748135
H      2.931061    0.821515    1.802882
H      5.166139    1.686826   -1.710899
H      7.616282    1.757372   -1.432960
H      8.702718    0.433482    0.381322
H      4.888540   -1.049579    1.621002
H      3.419504   -0.306160   -2.322483
H      0.990326   -0.381024   -2.601778
H     -1.296346   -0.122243   -1.659756

