%chk=opt.chk
%mem=2gb
%nproc=1
#p b3lyp 6-31G* opt scf(xqc,tight)

opt calculation

0 1
C      5.828383    0.422621    0.408289
O      4.986211    0.006462   -0.659199
C      3.638612    0.026804   -0.428062
C      2.855435   -0.388657   -1.507786
C      1.461623   -0.420430   -1.411439
C      0.837574   -0.028767   -0.223202
N     -0.585421   -0.057085   -0.115493
C     -1.372239    0.946514    0.456008
C     -1.041040    2.213569    0.982172
C     -2.062956    3.028028    1.479033
C     -3.386524    2.611693    1.440075
C     -3.718642    1.373934    0.884741
C     -2.704341    0.533995    0.373032
C     -2.728074   -0.737128   -0.271398
C     -3.773762   -1.620187   -0.622034
C     -3.480898   -2.844102   -1.227818
C     -2.163413   -3.204288   -1.475051
C     -1.111433   -2.346587   -1.140066
C     -1.409060   -1.093625   -0.562656
C      1.617900    0.390249    0.860798
C      3.014209    0.415152    0.757443
H      5.720001   -0.236099    1.276278
H      5.638177    1.466909    0.677322
H      6.864588    0.351256    0.063865
H      3.336409   -0.683288   -2.437720
H      0.885233   -0.711417   -2.286107
H     -0.017997    2.576578    0.991952
H     -1.816759    4.003768    1.891685
H     -4.171016    3.256443    1.827812
H     -4.758848    1.064125    0.837917
H     -4.806017   -1.354066   -0.412754
H     -4.288523   -3.521954   -1.491832
H     -1.943789   -4.169156   -1.926511
H     -0.088255   -2.666009   -1.312627
H      1.162206    0.659955    1.810884
H      3.582449    0.734792    1.624633

