%chk=opt.chk
%mem=2gb
%nproc=1
#p b3lyp 6-31G* opt scf(xqc,tight)

opt calculation

0 1
C     -3.022348   -2.071886    1.629779
O     -1.802703   -1.954275    0.910428
C     -1.689458   -0.770710    0.211208
N     -2.680912    0.112933    0.247321
C     -2.456722    1.204377   -0.476940
O     -3.415796    2.193963   -0.535564
C     -4.566846    1.914313    0.249063
N     -1.370221    1.457371   -1.188813
C     -0.442611    0.509233   -1.119387
O      0.688205    0.748847   -1.892554
C      1.815782    0.037379   -1.549969
C      2.262312   -0.928027   -2.456535
C      3.417735   -1.653580   -2.178848
C      4.129122   -1.400467   -1.006971
C      3.693643   -0.416451   -0.111348
C      2.535422    0.319487   -0.377261
O      2.039967    1.322157    0.413863
C      2.707810    1.572267    1.642638
N     -0.556376   -0.641112   -0.458873
H     -3.115027   -1.286137    2.387729
H     -3.884798   -2.069537    0.954080
H     -3.011848   -3.034582    2.150127
H     -5.257175    2.756683    0.141800
H     -5.082395    1.015525   -0.107050
H     -4.313134    1.826497    1.311337
H      1.704648   -1.117036   -3.369213
H      3.763512   -2.413761   -2.874296
H      5.031575   -1.966979   -0.789876
H      4.287085   -0.246428    0.780532
H      2.164832    2.367752    2.162103
H      2.696812    0.686978    2.287060
H      3.729910    1.925204    1.470758

