%chk=opt.chk
%mem=2gb
%nproc=1
#p b3lyp 6-31G* opt scf(xqc,tight)

opt calculation

0 1
C      6.942713    0.463777   -0.124290
O      5.945739    0.022534    0.788515
C      4.644149    0.123370    0.379427
C      4.206744    0.617748   -0.847165
C      2.838785    0.664783   -1.137720
C      1.887598    0.218775   -0.207546
C      0.510991    0.260562   -0.486838
C     -0.437711   -0.186629    0.446439
C     -1.877712   -0.135674    0.137109
C     -2.519191   -1.233753   -0.487169
C     -1.761305   -2.485421   -0.850384
C     -3.892867   -1.169844   -0.776151
C     -4.644068   -0.032822   -0.468884
C     -6.116338    0.005861   -0.753510
C     -4.015620    1.044682    0.160057
C     -2.643623    1.011026    0.461849
C     -2.021484    2.208580    1.134010
C      0.012950   -0.681693    1.676402
C      1.378241   -0.729625    1.968750
C      2.326313   -0.282788    1.036212
C      3.703055   -0.323112    1.312046
H      6.834868    1.531724   -0.340932
H      6.927023   -0.130591   -1.043832
H      7.918097    0.317431    0.349687
H      4.899462    0.975038   -1.601396
H      2.520367    1.054911   -2.102155
H      0.163993    0.646106   -1.444189
H     -1.343692   -2.953986    0.046292
H     -2.412739   -3.223781   -1.330344
H     -0.956744   -2.255485   -1.555949
H     -4.383315   -2.019267   -1.248472
H     -6.449382    1.029997   -0.952218
H     -6.359156   -0.591041   -1.638951
H     -6.673246   -0.387689    0.102358
H     -4.601920    1.924692    0.418860
H     -1.614013    1.930579    2.111079
H     -2.757925    3.001871    1.302060
H     -1.227838    2.629893    0.509007
H     -0.703883   -1.033873    2.415373
H      1.696029   -1.119734    2.933064
H      4.056656   -0.707129    2.266633

