%chk=opt.chk
%mem=2gb
%nproc=1
#p b3lyp 6-31G* opt scf(xqc,tight)

opt calculation

0 1
C      6.746084   -1.043137    1.520938
O      5.962539   -0.975803    0.331030
C      4.671304   -0.603615    0.543248
O      4.182720   -0.344287    1.634230
O      4.031223   -0.576746   -0.684211
C      2.691100   -0.201908   -0.590923
C      2.344661    1.126277   -0.827569
C      0.999984    1.498096   -0.777443
C      0.007749    0.542121   -0.505188
C     -1.410407    0.996837   -0.464390
O     -1.745679    2.150800   -0.673003
O     -2.226059   -0.042393   -0.170088
C     -3.661114    0.146640   -0.068306
C     -4.213751   -1.245083    0.274669
C     -4.259126    0.595570   -1.406015
C     -4.015955    1.109258    1.070157
C      0.376801   -0.795758   -0.289813
C      1.721398   -1.171129   -0.340040
H      6.799672   -0.061492    2.002228
H      6.337845   -1.790816    2.208285
H      7.759238   -1.346795    1.243112
H      3.108153    1.867271   -1.045595
H      0.726078    2.537110   -0.952846
H     -3.778732   -1.617450    1.209565
H     -3.946731   -1.972309   -0.501071
H     -5.303712   -1.235866    0.379803
H     -3.952240    1.611977   -1.670438
H     -3.922654   -0.055895   -2.220384
H     -5.354020    0.581026   -1.377858
H     -3.704519    2.134863    0.850309
H     -5.095494    1.127317    1.254724
H     -3.508624    0.818911    1.997052
H     -0.372370   -1.556190   -0.083642
H      2.004638   -2.207400   -0.180012

