%chk=opt.chk
%mem=2gb
%nproc=1
#p b3lyp 6-31G* opt scf(xqc,tight)

opt calculation

0 1
C      5.248215    1.743069   -0.231252
O      5.515228    0.377461    0.061412
C      4.433840   -0.450524    0.192449
C      4.750767   -1.782965    0.460623
C      3.743596   -2.733424    0.614397
C      2.406578   -2.352720    0.500503
C      2.057935   -1.019137    0.233558
C      0.646985   -0.617772    0.115691
C      0.115079    0.403999    0.910712
C     -1.227968    0.784136    0.796228
C     -2.095416    0.159879   -0.118718
C     -3.565164    0.603441   -0.217637
C     -4.261708    0.399357    1.145113
C     -4.383779   -0.177388   -1.270587
C     -3.632061    2.096950   -0.603598
C     -1.555624   -0.863170   -0.912393
C     -0.211355   -1.244399   -0.796240
C      3.092111   -0.075163    0.081273
H      4.679190    2.215836    0.576071
H      4.734569    1.848018   -1.192636
H      6.208475    2.262011   -0.309067
H      5.792400   -2.081434    0.549714
H      3.999927   -3.768026    0.825353
H      1.630878   -3.104218    0.634072
H      0.742219    0.909669    1.642291
H     -1.587346    1.581615    1.443147
H     -3.810886    1.008235    1.936424
H     -5.321306    0.675809    1.092790
H     -4.205601   -0.648300    1.463800
H     -4.414394   -1.249549   -1.044074
H     -3.969209   -0.052546   -2.277722
H     -5.422032    0.174203   -1.304011
H     -3.118424    2.281978   -1.554511
H     -3.168470    2.741448    0.151283
H     -4.670511    2.430307   -0.715016
H     -2.159622   -1.392413   -1.644149
H      0.164347   -2.036823   -1.441095
H      2.818539    0.952548   -0.137086

