%chk=opt.chk
%mem=2gb
%nproc=1
#p b3lyp 6-31G* opt scf(xqc,tight)

opt calculation

0 1
C     -3.945806    0.276601    1.198282
N     -3.045175    0.001888    0.096571
C     -3.324381   -1.178068   -0.702211
C     -1.782349    0.589649    0.116654
O     -1.450106    1.446183    0.931485
O     -0.954375    0.100055   -0.890056
C      0.355610    0.596236   -0.837917
C      0.620676    1.785568   -1.520531
C      1.913370    2.294719   -1.522668
C      2.932482    1.609146   -0.857922
C      2.678460    0.399926   -0.185441
C      3.715241   -0.286850    0.471448
C      3.475273   -1.491543    1.134054
C      2.193088   -2.026819    1.146581
C      1.157568   -1.354791    0.500828
F     -0.062402   -1.915277    0.535884
C      1.367391   -0.132883   -0.172958
H     -3.814350   -0.497029    1.960729
H     -3.744054    1.253560    1.646229
H     -4.977034    0.264225    0.833910
H     -2.759339   -1.174641   -1.637584
H     -3.049968   -2.064778   -0.123160
H     -4.390992   -1.209286   -0.942768
H     -0.177553    2.313422   -2.033669
H      2.130559    3.226564   -2.038191
H      3.936652    2.029002   -0.870942
H      4.726339    0.116654    0.470731
H      4.288241   -2.008325    1.637364
H      1.986933   -2.963109    1.655267

