%chk=opt.chk
%mem=2gb
%nproc=1
#p b3lyp 6-31G* opt scf(xqc,tight)

opt calculation

0 1
C     -4.479259    0.714685   -1.058234
N     -3.964258   -0.378479   -0.252834
C     -4.690443   -1.632401   -0.306104
C     -2.686961   -0.366619    0.299884
O     -2.186347   -1.338106    0.858508
O     -2.052326    0.862889    0.139578
C     -0.751675    0.936443    0.652304
C     -0.536722    1.725213    1.775580
C      0.757004    1.854168    2.265492
C      1.818212    1.206712    1.621794
C      1.618252    0.416794    0.469020
C      2.812350   -0.278037   -0.207891
C      3.483841   -1.245536    0.790540
C      3.841200    0.780713   -0.659788
C      2.428706   -1.104258   -1.456460
C      0.303250    0.301340   -0.010639
H     -4.279879    0.494562   -2.111076
H     -5.558107    0.801879   -0.899479
H     -4.013789    1.668587   -0.799704
H     -4.303081   -2.357515    0.414541
H     -5.745153   -1.446044   -0.083847
H     -4.595824   -2.048814   -1.313399
H     -1.364464    2.227783    2.264832
H      0.946751    2.457473    3.149226
H      2.815953    1.329324    2.038593
H      4.318036   -1.780846    0.322056
H      3.888999   -0.724047    1.664616
H      2.770148   -1.993756    1.155393
H      3.386992    1.503545   -1.347901
H      4.253814    1.344569    0.183969
H      4.687484    0.313883   -1.177271
H      1.974683   -0.476386   -2.231977
H      1.722793   -1.905635   -1.208853
H      3.310989   -1.579001   -1.902432
H      0.068834   -0.285082   -0.892844

