%chk=opt.chk
%mem=2gb
%nproc=1
#p b3lyp 6-31G* opt scf(xqc,tight)

opt calculation

0 1
C      5.637051   -0.245617    0.640961
O      4.236773   -0.356703    0.899446
C      3.452883    0.088025   -0.114492
O      3.849394    0.550463   -1.172781
C      2.012229   -0.060232    0.229111
C      1.581776   -0.593216    1.448784
C      0.215504   -0.709909    1.720012
C     -0.741681   -0.297169    0.779760
C     -2.117852   -0.407894    1.037381
C     -3.068293    0.004294    0.098373
O     -4.367991   -0.165145    0.489937
C     -5.374849    0.238635   -0.429587
C     -2.640946    0.535137   -1.116385
C     -1.273627    0.652586   -1.389353
C     -0.313100    0.241492   -0.452881
C      1.062268    0.354283   -0.715229
H      5.915532   -0.848862   -0.228843
H      6.173748   -0.628154    1.513521
H      5.917896    0.801939    0.493431
H      2.295340   -0.922833    2.199854
H     -0.097802   -1.127299    2.675091
H     -2.465098   -0.820831    1.982379
H     -5.316871    1.313276   -0.631699
H     -5.319259   -0.342347   -1.356105
H     -6.347305    0.038681    0.030608
H     -3.341464    0.867972   -1.874836
H     -0.964326    1.070458   -2.345505
H      1.400068    0.768969   -1.664203

