%chk=opt.chk
%mem=2gb
%nproc=1
#p b3lyp 6-31G* opt scf(xqc,tight)

opt calculation

0 1
C     -2.345386   -0.898748    0.959312
C     -2.003519    0.376054    0.176815
C     -2.609890    0.320554   -1.231562
C     -2.582352    1.589575    0.922072
C     -0.480400    0.520824    0.073495
O      0.160725    1.463914    0.520865
O      0.050466   -0.576989   -0.601513
C      1.437831   -0.523581   -0.739071
C      1.985087    0.051381   -1.886655
C      3.370338    0.062519   -2.043071
C      4.176969   -0.509419   -1.061923
F      5.507459   -0.499618   -1.217159
C      3.625891   -1.097917    0.074031
C      2.241501   -1.112978    0.237569
H     -2.001794   -1.798522    0.436680
H     -1.868016   -0.894771    1.945999
H     -3.426796   -0.995696    1.106674
H     -2.269851   -0.562727   -1.783814
H     -2.322548    1.200427   -1.818680
H     -3.704201    0.283053   -1.191060
H     -2.166400    1.670357    1.933111
H     -2.351727    2.524551    0.398264
H     -3.671941    1.517852    1.013719
H      1.344401    0.489874   -2.645262
H      3.827156    0.510718   -2.919405
H      4.278558   -1.539049    0.820325
H      1.798442   -1.571639    1.115958

