%chk=opt.chk
%mem=2gb
%nproc=1
#p b3lyp 6-31G* opt scf(xqc,tight)

opt calculation

0 1
C     -2.921833   -0.261320    1.728270
Si    -2.366892    0.338161    0.035145
C     -3.019145   -0.842997   -1.273840
C     -3.166224    2.021156   -0.265034
O     -0.709581    0.487176   -0.047450
C      0.360251   -0.365316    0.083055
C      0.211257   -1.728809    0.352083
C      1.333002   -2.545931    0.474054
C      2.609672   -2.006986    0.328244
C      2.785794   -0.642105    0.058067
C      4.074768   -0.102053   -0.088357
C      4.257617    1.254353   -0.357112
C      3.154101    2.089186   -0.483107
C      1.867192    1.566814   -0.340174
C      1.652477    0.197864   -0.067956
H     -4.014056   -0.289222    1.785690
H     -2.554490    0.409091    2.510843
H     -2.544679   -1.266932    1.933290
H     -2.643354   -1.856958   -1.111978
H     -2.709525   -0.517463   -2.271329
H     -4.112404   -0.877129   -1.248379
H     -4.256124    1.942967   -0.214563
H     -2.891195    2.403322   -1.252386
H     -2.834754    2.740756    0.489192
H     -0.766034   -2.182158    0.471604
H      1.212778   -3.605776    0.683311
H      3.471135   -2.663894    0.427608
H      4.951507   -0.738995    0.006642
H      5.260989    1.656622   -0.467583
H      3.289470    3.146822   -0.692431
H      1.018281    2.239754   -0.443050

