%chk=opt.chk
%mem=2gb
%nproc=1
#p b3lyp 6-31G* opt scf(xqc,tight)

opt calculation

0 1
C      5.193801    0.080265    1.354857
O      4.356465    0.401004    0.251326
C      3.016559    0.170069    0.403156
C      2.400347   -0.365570    1.531848
C      1.013524   -0.550635    1.554251
C      0.221587   -0.202827    0.449447
C     -1.169902   -0.383423    0.459992
C     -1.927062   -0.015092   -0.650802
O     -3.302993   -0.267155   -0.612924
C     -4.111276    0.863653   -0.662034
C     -5.546336    0.428465   -0.626475
O     -3.747773    2.030067   -0.720511
C     -1.326225    0.501420   -1.794633
C      0.056626    0.685395   -1.812689
C      0.842664    0.339697   -0.699343
C      2.235672    0.518158   -0.703273
H      5.159260   -0.991207    1.577998
H      6.222598    0.329131    1.077214
H      4.933051    0.676905    2.235275
H      2.965842   -0.650334    2.412537
H      0.555315   -0.969361    2.447733
H     -1.666256   -0.806660    1.328599
H     -6.192967    1.309433   -0.672661
H     -5.762526   -0.206928   -1.488983
H     -5.749079   -0.104229    0.305960
H     -1.920507    0.768782   -2.662879
H      0.520380    1.101850   -2.704306
H      2.729210    0.935335   -1.578679

