%chk=opt.chk
%mem=2gb
%nproc=1
#p b3lyp 6-31G* opt scf(xqc,tight)

opt calculation

0 1
C      0.067331    3.185270   -1.315333
O     -0.260721    2.115220   -0.429833
C     -0.537878    0.946717   -1.063972
O     -0.546096    0.762817   -2.268965
C     -0.889869   -0.070161   -0.051834
C      0.042806   -0.389746    0.945804
O      1.286308    0.250587    1.003724
C      2.295099   -0.415866    0.313417
O      2.150981   -1.508397   -0.225903
N      3.488083    0.298854    0.298751
C      4.569405   -0.182390   -0.539080
C      3.569932    1.676360    0.751108
C     -0.257822   -1.313716    1.940784
C     -1.493831   -1.954960    1.920450
C     -2.441070   -1.675046    0.920304
C     -3.679364   -2.337723    0.924476
C     -4.639873   -2.074393   -0.050740
C     -4.375485   -1.142929   -1.045285
C     -3.149617   -0.474328   -1.065309
C     -2.151372   -0.721331   -0.090957
H      0.961418    2.940673   -1.897550
H     -0.776660    3.410004   -1.974960
H      0.280478    4.071517   -0.711324
H      4.491861   -1.258255   -0.718163
H      5.524849    0.023708   -0.048116
H      4.528148    0.340729   -1.499138
H      4.578183    1.875250    1.125748
H      2.856138    1.882545    1.552344
H      3.354383    2.334490   -0.095813
H      0.465819   -1.545065    2.716838
H     -1.714076   -2.685921    2.696563
H     -3.908002   -3.072580    1.694031
H     -5.591575   -2.598938   -0.033555
H     -5.118135   -0.935805   -1.811625
H     -2.979775    0.242810   -1.866886

