%chk=opt.chk
%mem=2gb
%nproc=1
#p b3lyp 6-31G* opt scf(xqc,tight)

opt calculation

0 1
C     -4.261278    1.428376    0.085597
C     -4.620236    0.138805    0.806193
C     -3.461354   -0.855543    0.939683
C     -3.004642   -1.475003   -0.383256
O     -2.324291   -0.540444   -1.217443
C     -0.983078   -0.345208   -1.044949
C     -0.407962    0.532634   -1.963761
C      0.954795    0.832766   -1.909093
C      1.772861    0.258717   -0.926154
C      3.148555    0.550119   -0.855511
C      3.951687   -0.026647    0.129847
O      5.293500    0.178400    0.298892
C      5.930716    1.061910   -0.614925
C      3.376952   -0.900679    1.051822
C      2.014110   -1.200381    0.995688
C      1.196724   -0.628328    0.010381
C     -0.179209   -0.919845   -0.060210
H     -5.083339    2.146378    0.172907
H     -4.090959    1.258730   -0.980954
H     -3.365333    1.886480    0.515920
H     -5.466851   -0.339001    0.299622
H     -4.964021    0.396026    1.815625
H     -3.794782   -1.668683    1.595891
H     -2.625247   -0.357820    1.442886
H     -3.885238   -1.812418   -0.942686
H     -2.403376   -2.376725   -0.218992
H     -1.027848    0.988533   -2.732161
H      1.369119    1.520487   -2.642485
H      3.569630    1.234204   -1.585150
H      6.989768    1.115373   -0.344748
H      5.516861    2.072959   -0.540310
H      5.867637    0.682432   -1.640147
H      3.996005   -1.353606    1.822469
H      1.598508   -1.886063    1.730344
H     -0.598383   -1.596939    0.676300

