%chk=opt.chk
%mem=2gb
%nproc=1
#p b3lyp 6-31G* opt scf(xqc,tight)

opt calculation

0 1
C      1.801128    1.805099   -0.942750
C      2.251274    0.694051   -0.042361
C      3.515719    0.733167    0.558816
C      3.934190   -0.299975    1.403078
C      3.094953   -1.384903    1.658207
C      1.831344   -1.437431    1.074880
C      1.415962   -0.392251    0.248035
O      0.162054   -0.481187   -0.364937
C     -0.890169   -0.046632    0.438782
O     -0.792935    0.374501    1.584915
C     -2.209269   -0.167248   -0.333885
C     -2.444684   -1.632445   -0.723729
C     -3.368848    0.304241    0.558334
C     -2.150802    0.719036   -1.585202
H      2.624381    2.487605   -1.178632
H      1.428664    1.403403   -1.890737
H      1.008177    2.384334   -0.459263
H      4.187032    1.568961    0.374664
H      4.918269   -0.256856    1.863326
H      3.425397   -2.186043    2.313788
H      1.175127   -2.279567    1.270561
H     -3.413209   -1.760134   -1.219936
H     -2.427947   -2.282014    0.159001
H     -1.672206   -1.997787   -1.409720
H     -3.234693    1.347882    0.865846
H     -4.328900    0.230895    0.035208
H     -3.438377   -0.298950    1.471055
H     -1.923947    1.758395   -1.321044
H     -1.373374    0.384926   -2.281489
H     -3.104310    0.706927   -2.124811

