%chk=opt.chk
%mem=2gb
%nproc=1
#p b3lyp 6-31G* opt scf(xqc,tight)

opt calculation

0 1
C     -4.922652   -1.304989    0.089971
C     -3.992403   -0.086852    0.207520
C     -4.233020    0.841251   -0.990421
C     -4.292745    0.644647    1.522390
C     -2.533442   -0.558439    0.206005
O     -2.179636   -1.728417    0.127743
O     -1.684021    0.542974    0.307395
C     -0.316297    0.236360    0.314433
C      0.257577   -0.376625    1.430673
C      1.633658   -0.639535    1.459554
C      2.421416   -0.259483    0.354549
C      1.799242    0.366277   -0.722426
C      0.436433    0.643403   -0.788846
O      2.708239    0.668729   -1.690100
C      3.920385    0.235873   -1.246897
C      5.120801    0.353016   -1.944430
C      6.262138   -0.155096   -1.315632
C      6.187505   -0.747058   -0.052250
C      4.964325   -0.850528    0.626001
C      3.802697   -0.345890    0.011054
H     -4.732879   -1.861985   -0.834952
H     -4.775608   -1.999318    0.925453
H     -5.975945   -1.002805    0.088030
H     -3.631721    1.754767   -0.921632
H     -3.965124    0.346872   -1.931304
H     -5.284545    1.142678   -1.053691
H     -5.347001    0.937202    1.581678
H     -4.068487    0.008784    2.386591
H     -3.691519    1.555009    1.625162
H     -0.360547   -0.662563    2.277516
H      2.081334   -1.127884    2.319767
H     -0.001118    1.138652   -1.645127
H      5.160297    0.814572   -2.923485
H      7.223509   -0.087809   -1.820802
H      7.091266   -1.134784    0.413460
H      4.917886   -1.313356    1.607049

