%chk=opt.chk
%mem=2gb
%nproc=1
#p b3lyp 6-31G* opt scf(xqc,tight)

opt calculation

0 1
O      1.013388   -0.689174   -1.963072
C      1.532529   -0.345332   -0.911733
O      0.913079    0.248934    0.172532
C     -0.456911    0.485856    0.013235
C     -0.913626    1.444395   -0.886043
C     -2.283131    1.694519   -0.976375
C     -3.195455    1.003076   -0.160158
C     -4.575933    1.245708   -0.240586
C     -5.471111    0.555456    0.578480
C     -4.998642   -0.385772    1.488467
C     -3.629476   -0.640403    1.581874
C     -2.715197    0.043984    0.764862
C     -1.336437   -0.201925    0.847364
C      2.982592   -0.530058   -0.622304
C      3.771096   -1.165577   -1.592371
C      5.135874   -1.363858   -1.374106
C      5.721836   -0.928405   -0.186794
C      4.946425   -0.294522    0.783388
C      3.580092   -0.094132    0.569164
H     -0.218368    1.986896   -1.519112
H     -2.635861    2.435031   -1.690611
H     -4.965228    1.976815   -0.945581
H     -6.537263    0.753132    0.504169
H     -5.695453   -0.924110    2.125566
H     -3.280321   -1.381166    2.297676
H     -0.945047   -0.927825    1.554249
H      3.324335   -1.510061   -2.523690
H      5.740303   -1.857947   -2.131024
H      6.784894   -1.082991   -0.017448
H      5.406571    0.044960    1.708482
H      3.000447    0.404495    1.341975

