%chk=opt.chk
%mem=2gb
%nproc=1
#p b3lyp 6-31G* opt scf(xqc,tight)

opt calculation

0 1
C      4.918282    0.502278    0.838592
C      3.958611    0.037404   -0.242583
C      2.529447   -0.008735    0.248808
O      2.159885    0.276885    1.378914
O      1.724874   -0.434315   -0.807358
C      0.355249   -0.523877   -0.529862
C     -0.246500   -1.770753   -0.661500
C     -1.620145   -1.891491   -0.449899
C     -2.397496   -0.767353   -0.121094
C     -3.780733   -0.874195    0.094633
C     -4.541843    0.250525    0.417677
C     -3.930878    1.496072    0.529274
C     -2.556887    1.621009    0.317956
C     -1.776115    0.500324   -0.007633
C     -0.394091    0.611932   -0.223766
H      4.892525   -0.169877    1.702740
H      4.659435    1.507160    1.188486
H      5.942645    0.526780    0.454420
H      4.010650    0.725167   -1.093169
H      4.243808   -0.966645   -0.573799
H      0.343674   -2.643193   -0.924180
H     -2.083639   -2.870743   -0.545759
H     -4.277201   -1.838495    0.013203
H     -5.611506    0.152568    0.583461
H     -4.522424    2.371823    0.783026
H     -2.097208    2.602258    0.413341
H      0.097583    1.577487   -0.146185

