%chk=opt.chk
%mem=2gb
%nproc=1
#p b3lyp 6-31G* opt scf(xqc,tight)

opt calculation

0 1
C      3.391782    0.151878   -0.057944
C      2.393822    0.904886    0.808372
C      0.986605    0.405501    0.605405
C      0.168325    0.963525   -0.384425
C     -1.133666    0.490861   -0.586229
C     -1.631650   -0.549771    0.197284
O     -2.879054   -1.103147    0.104038
C     -3.749119   -0.561356   -0.881232
C     -0.815123   -1.112293    1.180441
C      0.484643   -0.642623    1.384014
H      3.158626    0.264585   -1.122187
H      4.403300    0.534930    0.110013
H      3.391349   -0.918510    0.174328
H      2.671625    0.806213    1.864854
H      2.440989    1.977001    0.581661
H      0.540304    1.773040   -1.008763
H     -1.728792    0.956967   -1.363880
H     -3.959739    0.495079   -0.684499
H     -4.697028   -1.105262   -0.825521
H     -3.342768   -0.703499   -1.888094
H     -1.194700   -1.925980    1.793429
H      1.100267   -1.102025    2.153672

