%chk=opt.chk
%mem=2gb
%nproc=1
#p b3lyp 6-31G* opt scf(xqc,tight)

opt calculation

0 1
C      5.767789   -0.186696    0.912357
O      4.747227   -1.097141    0.521659
C      3.497941   -0.577636    0.324346
C      3.128722    0.757821    0.487489
C      1.807439    1.154645    0.250638
C      0.843611    0.218092   -0.141201
C     -0.549295    0.689523   -0.381276
O     -0.742736    1.848027   -0.727861
N     -1.547378   -0.236696   -0.150977
C     -2.987528    0.052619   -0.243276
C     -3.369713    0.540953   -1.650249
C     -3.403032    1.091910    0.809057
C     -3.751528   -1.256094    0.031905
C      1.216668   -1.117826   -0.321268
C      2.537790   -1.508602   -0.083318
H      5.540660    0.267810    1.882342
H      5.930320    0.577439    0.145036
H      6.697721   -0.753327    1.019986
H      3.840352    1.517447    0.793643
H      1.530213    2.200150    0.374474
H     -1.287755   -1.067307    0.364008
H     -2.924623    1.512739   -1.885062
H     -4.455716    0.651986   -1.748017
H     -3.033408   -0.166959   -2.416536
H     -2.927151    2.062359    0.634467
H     -3.118788    0.766367    1.816388
H     -4.487021    1.252498    0.800244
H     -3.520291   -1.646628    1.029942
H     -4.835598   -1.107864   -0.026897
H     -3.477205   -2.032371   -0.692064
H      0.505643   -1.859775   -0.672244
H      2.826669   -2.547463   -0.227191

