%chk=opt.chk
%mem=2gb
%nproc=1
#p b3lyp 6-31G* opt scf(xqc,tight)

opt calculation

0 1
O      1.366378    1.718925    0.575780
C      1.744366    0.593417    0.278837
O      0.993599   -0.424438   -0.282518
C     -0.342741   -0.090064   -0.519629
C     -0.682312    0.769575   -1.559585
C     -2.028327    1.043805   -1.802992
C     -3.035462    0.449411   -1.022308
C     -4.393781    0.716219   -1.256774
C     -5.384346    0.115345   -0.477981
C     -5.030702   -0.760205    0.544584
C     -3.685289   -1.037009    0.792360
C     -2.676061   -0.440157    0.019781
C     -1.319925   -0.708625    0.257870
C      3.144161    0.118171    0.489431
C      4.068068    0.993971    1.053094
C      5.372533    0.548187    1.247856
C      5.711566   -0.748446    0.876505
C      4.729227   -1.553543    0.322380
N      3.455766   -1.153417    0.119951
H      0.087555    1.228225   -2.171928
H     -2.288102    1.725583   -2.609453
H     -4.690732    1.397052   -2.051296
H     -6.431746    0.331919   -0.670936
H     -5.801486   -1.228231    1.151210
H     -3.428719   -1.723039    1.596463
H     -1.019459   -1.394787    1.044560
H      3.780340    2.002252    1.335734
H      6.117338    1.207438    1.685761
H      6.719739   -1.124121    1.015841
H      4.948553   -2.573412    0.017402

