%chk=opt.chk
%mem=2gb
%nproc=1
#p b3lyp 6-31G* opt scf(xqc,tight)

opt calculation

0 1
C      5.210491   -1.619845   -0.349175
C      5.013810   -0.098298   -0.379753
C      5.831861    0.486004   -1.542676
C      5.493554    0.531934    0.934357
C      3.529615    0.226690   -0.587497
O      3.084551    0.882972   -1.520628
O      2.778306   -0.335620    0.445842
C      1.391540   -0.126470    0.425520
C      0.844080    1.157209    0.408810
C     -0.541802    1.307908    0.446255
C     -1.354838    0.174918    0.504797
O     -2.737856    0.391063    0.599214
C     -3.561859   -0.273827   -0.310702
O     -3.184979   -1.026135   -1.200271
C     -5.027427    0.079750   -0.030252
C     -5.929648   -0.643515   -1.043341
C     -5.401543   -0.378043    1.385773
C     -5.229112    1.594047   -0.175850
C     -0.805755   -1.106760    0.565300
C      0.580009   -1.257755    0.522660
H      4.693405   -2.078227    0.501178
H      6.271495   -1.881490   -0.269538
H      4.813639   -2.086336   -1.258519
H      5.712553    1.574151   -1.606374
H      6.900279    0.273514   -1.423871
H      5.512072    0.066035   -2.503550
H      5.308973    1.612576    0.942398
H      4.972883    0.107755    1.800432
H      6.567219    0.371085    1.083237
H      1.482442    2.034298    0.361311
H     -0.981767    2.300457    0.428834
H     -6.987007   -0.413147   -0.870676
H     -5.809444   -1.731152   -0.976635
H     -5.687191   -0.350943   -2.071649
H     -6.461826   -0.196305    1.593907
H     -5.209356   -1.449313    1.517068
H     -4.819881    0.151211    2.149249
H     -4.647507    2.153263    0.565810
H     -4.910259    1.940199   -1.165827
H     -6.281711    1.868381   -0.044044
H     -1.442789   -1.983007    0.639200
H      1.020780   -2.249234    0.563942

