%chk=opt.chk
%mem=2gb
%nproc=1
#p b3lyp 6-31G* opt scf(xqc,tight)

opt calculation

0 1
C      6.226309    0.173613    1.800805
O      4.830898    0.335054    2.021143
C      4.000081    0.026828    0.978900
C      4.394695   -0.433138   -0.275169
C      3.434915   -0.711144   -1.254589
C      2.067283   -0.533846   -0.995019
C      1.094399   -0.807127   -1.966594
C     -0.263522   -0.623755   -1.688177
C     -0.688715   -0.164450   -0.433744
C     -2.118642    0.025939   -0.140982
C     -2.718746   -0.589619    0.968585
C     -4.077551   -0.410097    1.247611
C     -4.873149    0.383874    0.416372
C     -6.321924    0.605242    0.734056
C     -4.283064    1.014483   -0.682924
C     -2.924258    0.832149   -0.960211
C      0.291431    0.107999    0.536098
C      1.662073   -0.069678    0.273236
C      2.639087    0.205540    1.244800
H      6.474488   -0.872077    1.591026
H      6.745290    0.460545    2.720463
H      6.578588    0.832651    1.000396
H      5.438323   -0.587111   -0.527119
H      3.766302   -1.068943   -2.227029
H      1.383984   -1.168808   -2.950545
H     -0.994191   -0.856174   -2.460517
H     -2.128551   -1.226635    1.624511
H     -4.508723   -0.898897    2.118328
H     -6.750697   -0.270310    1.232848
H     -6.900991    0.773623   -0.180035
H     -6.432824    1.475185    1.388598
H     -4.875172    1.655180   -1.332433
H     -2.491594    1.340858   -1.819395
H     -0.018943    0.477376    1.512583
H      2.343113    0.565670    2.227979

