%chk=opt.chk
%mem=2gb
%nproc=1
#p b3lyp 6-31G* opt scf(xqc,tight)

opt calculation

0 1
C     -2.239809    1.941922    1.509717
O     -3.297298    1.051393    1.173462
C     -2.913460    0.055360    0.301111
N     -3.870275   -0.807025   -0.005456
C     -3.494743   -1.763107   -0.842555
O     -4.490366   -2.663793   -1.158985
C     -4.079842   -3.656426   -2.089554
N     -2.282191   -1.911661   -1.363642
C     -1.410749   -0.988834   -0.974198
O     -0.139268   -1.128800   -1.523112
C      0.840090   -0.314516   -1.010104
C      1.313751    0.732681   -1.794945
C      2.331655    1.553016   -1.306675
C      2.892721    1.323160   -0.039095
C      3.914828    2.142142    0.466765
C      4.466291    1.899355    1.726114
C      4.005134    0.834976    2.494725
C      2.990027    0.010099    2.007232
C      2.422812    0.241322    0.743926
C      1.400892   -0.578549    0.241438
N     -1.667520    0.023901   -0.151651
H     -1.426667    1.416854    2.023495
H     -2.640630    2.689815    2.200901
H     -1.869379    2.472972    0.625501
H     -3.781969   -3.209061   -3.044404
H     -4.937711   -4.308326   -2.281848
H     -3.276931   -4.278648   -1.679111
H      0.890667    0.916861   -2.778434
H      2.687434    2.374554   -1.924713
H      4.291189    2.978206   -0.118694
H      5.257733    2.541596    2.104834
H      4.435379    0.645063    3.474734
H      2.643413   -0.817088    2.623114
H      1.034791   -1.419416    0.824729

