%chk=opt.chk
%mem=2gb
%nproc=1
#p b3lyp 6-31G* opt scf(xqc,tight)

opt calculation

0 1
C      1.994628   -1.685497    1.392818
C      2.378366   -0.308183    1.908609
N      2.941419    0.557201    0.873699
C      4.382984    0.540077    0.646576
C      4.814649   -0.466522   -0.408447
C      2.138992    1.251776   -0.029550
O      2.588276    1.903265   -0.967470
O      0.781927    1.130459    0.265522
C     -0.120696    1.736789   -0.620638
C     -0.104823    3.118240   -0.821616
C     -1.038926    3.699401   -1.682112
C     -1.990344    2.906738   -2.329783
C     -2.021359    1.528790   -2.108592
C     -1.099398    0.949046   -1.231830
C     -1.159187   -0.505445   -1.007544
O     -0.693278   -1.230396   -1.883533
N     -1.758534   -0.986795    0.161461
C     -2.425039   -0.142136    1.158559
C     -3.906035    0.056055    0.881538
C     -1.847335   -2.438165    0.321272
C     -2.964201   -3.068521   -0.497735
H      1.339574   -1.618915    0.519703
H      2.877680   -2.261344    1.104130
H      1.471805   -2.248469    2.172366
H      3.097656   -0.394761    2.730254
H      1.487218    0.175327    2.324313
H      4.691834    1.540865    0.321870
H      4.892970    0.343499    1.595772
H      5.891408   -0.385148   -0.587631
H      4.297750   -0.297781   -1.358371
H      4.606753   -1.491602   -0.091794
H      0.638514    3.740179   -0.330642
H     -1.016245    4.772368   -1.858367
H     -2.703867    3.363488   -3.011523
H     -2.756270    0.909373   -2.616426
H     -1.943541    0.837845    1.196763
H     -2.280567   -0.591923    2.147246
H     -4.459425   -0.879342    0.999450
H     -4.327478    0.778680    1.587534
H     -4.080490    0.426247   -0.132836
H     -1.971365   -2.676909    1.383021
H     -0.892901   -2.876702    0.006544
H     -3.946425   -2.704835   -0.186468
H     -2.852327   -2.850516   -1.564360
H     -2.954347   -4.155802   -0.371751

