%chk=opt.chk
%mem=2gb
%nproc=1
#p b3lyp 6-31G* opt scf(xqc,tight)

opt calculation

0 1
C      7.099893    0.350654    0.001173
O      5.698705    0.487452    0.241472
C      4.937884   -0.436432   -0.397389
O      5.355416   -1.327179   -1.120813
C      3.494338   -0.226944   -0.100599
C      3.041575    0.793281    0.742820
C      1.674119    0.945627    0.988933
C      0.737553    0.083939    0.397730
C     -0.636831    0.227821    0.638389
C     -1.543759   -0.633447    0.021326
O     -2.916899   -0.547156    0.287544
C     -3.554833    0.623613   -0.119162
O     -2.997059    1.545985   -0.705894
N     -4.907099    0.631373    0.207750
C     -5.589069   -0.532209    0.746369
C     -5.740626    1.705782   -0.296097
C     -1.111687   -1.664068   -0.806083
C      0.253367   -1.816566   -1.049408
C      1.189162   -0.950632   -0.457418
C      2.565761   -1.093086   -0.695549
H      7.617034    1.138132    0.556321
H      7.320503    0.475541   -1.063606
H      7.457818   -0.619056    0.361116
H      3.738702    1.480222    1.216147
H      1.343986    1.748415    1.645533
H     -1.003958    1.012053    1.294834
H     -6.030817   -1.091422   -0.083580
H     -4.908457   -1.187472    1.294908
H     -6.378228   -0.203519    1.428932
H     -6.277149    1.347347   -1.179649
H     -5.149547    2.582963   -0.572478
H     -6.458557    1.995683    0.476601
H     -1.827338   -2.341526   -1.261567
H      0.584030   -2.619269   -1.705309
H      2.922069   -1.885898   -1.352197

