%chk=opt.chk
%mem=2gb
%nproc=1
#p b3lyp 6-31G* opt scf(xqc,tight)

opt calculation

0 1
C     -3.992385   -0.130341    1.262721
C     -3.042777   -0.089904    0.054639
C     -3.076579    1.316275   -0.558266
C     -3.497581   -1.134416   -0.972997
C     -1.617865   -0.415703    0.516752
O     -1.302062   -0.682264    1.669676
O     -0.746622   -0.366813   -0.570905
C      0.587699   -0.652035   -0.237053
C      0.946997   -1.995862   -0.103011
C      2.262515   -2.315266    0.197367
C      3.199355   -1.280103    0.338863
N      4.563272   -1.682688    0.637387
O      4.747235   -2.309671    1.689246
O      5.436618   -1.398039   -0.193169
C      2.868333    0.096214    0.194191
C      3.782206    1.173609    0.341070
C      3.385548    2.501521    0.177081
C      2.066950    2.793749   -0.135556
C      1.144617    1.758310   -0.278019
C      1.519059    0.407083   -0.111865
H     -3.992360   -1.119464    1.735352
H     -3.694024    0.596854    2.026868
H     -5.022434    0.098667    0.967269
H     -4.096852    1.603641   -0.835768
H     -2.694556    2.062619    0.147762
H     -2.459508    1.378729   -1.461650
H     -2.881310   -1.105412   -1.878634
H     -4.537180   -0.966632   -1.275689
H     -3.423518   -2.148240   -0.562956
H      0.204807   -2.780702   -0.218742
H      2.553991   -3.356244    0.319391
H      4.828548    0.993356    0.584684
H      4.110537    3.303623    0.292921
H      1.752411    3.826072   -0.266085
H      0.116913    2.019476   -0.520917

