%chk=opt.chk
%mem=2gb
%nproc=1
#p b3lyp 6-31G* opt scf(xqc,tight)

opt calculation

0 1
C      3.241174   -0.922475    1.732036
O      3.058448   -1.292153    0.371458
C      1.987512   -0.744772   -0.280412
C      1.850622   -1.142609   -1.611645
C      0.802666   -0.658670   -2.393675
C     -0.120930    0.229137   -1.845099
C     -0.006133    0.638793   -0.508969
C     -1.009377    1.604569    0.089017
N     -2.194260    1.021458    0.735209
C     -1.877706    0.213215    1.907107
C     -3.056855    0.293778   -0.189061
C      1.060543    0.146067    0.265302
H      2.389960   -1.237433    2.344740
H      3.422061    0.153227    1.828028
H      4.128951   -1.443294    2.103583
H      2.569135   -1.835348   -2.042668
H      0.708129   -0.974151   -3.429173
H     -0.933478    0.601433   -2.464981
H     -0.490377    2.248490    0.812236
H     -1.337571    2.301532   -0.694319
H     -1.253689    0.774567    2.611316
H     -2.795439   -0.047235    2.446695
H     -1.364167   -0.720057    1.652305
H     -4.002595    0.034273    0.300292
H     -2.602405   -0.634789   -0.550801
H     -3.316131    0.915860   -1.052898
H      1.141910    0.476588    1.295739

