%chk=opt.chk
%mem=2gb
%nproc=1
#p b3lyp 6-31G* opt scf(xqc,tight)

opt calculation

0 1
C     -4.802994   -0.728800    1.038433
O     -4.222726   -0.612358   -0.254348
C     -2.941904   -0.136156   -0.314689
C     -2.408400   -0.056940   -1.602596
C     -1.108454    0.411217   -1.810362
C     -0.317760    0.808796   -0.725793
C      1.087432    1.322961   -0.945283
C      2.167208    0.466722   -0.322199
C      2.385005   -0.845061   -0.768950
C      3.385518   -1.632286   -0.196821
C      4.180549   -1.116813    0.824766
C      3.975934    0.185819    1.275487
C      2.975175    0.974733    0.705196
C     -0.858922    0.731672    0.565082
C     -2.161035    0.260933    0.769980
H     -4.241551   -1.432565    1.661850
H     -4.887286    0.249618    1.522859
H     -5.814766   -1.127268    0.915920
H     -3.011622   -0.364139   -2.453376
H     -0.721267    0.460120   -2.825290
H      1.138772    2.348152   -0.555573
H      1.300331    1.410064   -2.018903
H      1.769398   -1.262797   -1.562734
H      3.542285   -2.648784   -0.547858
H      4.958885   -1.730701    1.269943
H      4.596287    0.588031    2.072065
H      2.830129    1.989128    1.069513
H     -0.263707    1.032251    1.425018
H     -2.530516    0.216664    1.788661

