%chk=opt.chk
%mem=2gb
%nproc=1
#p b3lyp 6-31G* opt scf(xqc,tight)

opt calculation

0 1
C     -5.872363    0.177504   -1.662193
O     -4.464899    0.389648   -1.544067
C     -3.922875   -0.129903   -0.414172
O     -4.531008   -0.730522    0.457876
C     -2.457800    0.128837   -0.365135
C     -1.784972    0.830019   -1.371484
C     -0.407314    1.046236   -1.275758
C      0.320549    0.566359   -0.176054
C      1.703448    0.778274   -0.069898
C      2.402284    0.272839    1.026365
O      3.772809    0.512085    1.190408
C      4.602805    0.002142    0.196858
C      6.022071    0.354977    0.529974
O      4.265201   -0.632735   -0.792572
C      1.746716   -0.410802    2.044741
C      0.371408   -0.624159    1.949445
C     -0.354505   -0.144487    0.845727
C     -1.738862   -0.354062    0.737716
H     -6.205378    0.630170   -2.600242
H     -6.403679    0.661108   -0.836460
H     -6.097483   -0.893127   -1.695203
H     -2.316635    1.214275   -2.238487
H      0.095721    1.591230   -2.072352
H      2.236228    1.326734   -0.841940
H      6.301306   -0.095073    1.485901
H      6.135007    1.441356    0.567079
H      6.684460   -0.037527   -0.246906
H      2.296924   -0.778203    2.905726
H     -0.132946   -1.167554    2.745971
H     -2.266220   -0.900014    1.519135

