%chk=opt.chk
%mem=2gb
%nproc=1
#p b3lyp 6-31G* opt scf(xqc,tight)

opt calculation

0 1
C     -3.312670   -0.316720    0.773072
C     -2.544598    0.231315   -0.436821
C     -2.397817   -0.850754   -1.514714
C     -3.321821    1.419835   -1.025279
C     -1.155382    0.702355    0.009358
O     -0.743612    1.851087   -0.093496
O     -0.444499   -0.371716    0.542266
C      0.842697   -0.033368    0.983060
C      0.976056    0.548918    2.242960
C      2.247677    0.851314    2.710091
C      3.365075    0.554639    1.922383
C      3.251270   -0.044932    0.672868
N      4.370634   -0.314596   -0.022972
C      4.243608   -0.902791   -1.232240
C      3.032184   -1.249490   -1.796271
C      1.877631   -0.972371   -1.075167
C      1.963795   -0.354458    0.187172
H     -3.372326    0.430555    1.572746
H     -2.825164   -1.203365    1.193790
H     -4.334530   -0.601257    0.498494
H     -1.899501   -1.745326   -1.124550
H     -3.375006   -1.160139   -1.901897
H     -1.798770   -0.487707   -2.357806
H     -2.799971    1.846965   -1.889560
H     -3.441168    2.221261   -0.286894
H     -4.322151    1.117391   -1.354836
H      0.102392    0.772837    2.847139
H      2.378870    1.317563    3.682965
H      4.358381    0.795302    2.295533
H      5.178383   -1.094258   -1.751549
H      2.987170   -1.721186   -2.770932
H      0.913164   -1.236903   -1.498911

