%chk=opt.chk
%mem=2gb
%nproc=1
#p b3lyp 6-31G* opt scf(xqc,tight)

opt calculation

0 1
C      6.744579    1.191762    0.665427
O      6.015770    0.020543    0.321113
C      4.652282    0.124093    0.306564
C      3.911733    1.259324    0.618018
C      2.514299    1.225139    0.554202
C      1.827032    0.061879    0.166313
C      2.576123   -1.096823   -0.106994
C      3.980008   -1.045078   -0.052749
C      1.920531   -2.395816   -0.502371
C      0.459142   -2.471952   -0.070026
C     -0.284226   -1.216065   -0.535012
C      0.303335    0.048534    0.130716
C     -0.305457    1.317273   -0.507669
C     -1.618999    1.083535   -1.259260
C     -2.556102    0.039051   -0.622382
C     -3.705409   -0.221646   -1.624436
C     -1.813406   -1.304023   -0.317247
C     -2.233577   -1.702356    1.114033
C     -3.436002   -0.838240    1.443193
C     -3.108115    0.484551    0.759810
O     -4.292609    1.266613    0.678596
C     -4.069864    2.648687    0.915519
H      6.521024    1.508632    1.689588
H      7.810430    0.948259    0.617902
H      6.555679    1.999724   -0.049325
H      4.385108    2.188267    0.916322
H      1.965015    2.126939    0.815892
H      4.563703   -1.932981   -0.288433
H      2.460639   -3.238848   -0.054764
H      1.990242   -2.499476   -1.592323
H      0.409453   -2.572277    1.020926
H      0.000772   -3.370764   -0.498752
H     -0.117954   -1.139517   -1.620689
H      0.005434    0.042609    1.188302
H      0.397524    1.775170   -1.215802
H     -0.466239    2.067110    0.277721
H     -1.363509    0.755508   -2.276855
H     -2.133843    2.042025   -1.389463
H     -4.429316   -0.946772   -1.238905
H     -3.316849   -0.621065   -2.568540
H     -4.247364    0.701288   -1.858810
H     -2.185369   -2.087505   -0.992495
H     -1.442850   -1.504660    1.844755
H     -2.476411   -2.767995    1.180214
H     -4.362273   -1.276003    1.053385
H     -3.575211   -0.714914    2.522218
H     -2.340476    0.996650    1.354501
H     -5.023713    3.172496    0.810176
H     -3.364740    3.064148    0.192064
H     -3.699977    2.804965    1.933520

