%chk=opt.chk
%mem=2gb
%nproc=1
#p b3lyp 6-31G* opt scf(xqc,tight)

opt calculation

0 1
C      2.857986   -2.536520    1.385342
O      2.334312   -1.448007    0.635329
C      3.179326   -0.411586    0.340908
C      4.555185   -0.417610    0.600123
C      5.358005    0.663209    0.217366
C      4.800484    1.758557   -0.437135
C      3.433534    1.780733   -0.701665
C      2.622254    0.708289   -0.300287
C      1.179929    0.809926   -0.610728
O      0.760507    1.200177   -1.690066
O      0.457621    0.509058    0.527371
C     -0.924240    0.567328    0.336975
C     -1.622092    1.648898    0.862135
C     -3.009814    1.692363    0.727171
C     -3.701985    0.651840    0.082229
C     -5.098428    0.682505   -0.060318
C     -5.774059   -0.358433   -0.699755
C     -5.063412   -1.443384   -1.204919
C     -3.674807   -1.490979   -1.072368
C     -2.979354   -0.452577   -0.432523
C     -1.584307   -0.487771   -0.291834
H      3.251601   -2.200645    2.350402
H      2.035754   -3.230478    1.584749
H      3.618304   -3.077569    0.812886
H      5.041909   -1.256093    1.088229
H      6.426303    0.642090    0.421946
H      5.429061    2.590932   -0.744102
H      2.996556    2.632781   -1.219159
H     -1.094866    2.451454    1.367764
H     -3.551133    2.544779    1.130840
H     -5.671926    1.521755    0.326501
H     -6.855151   -0.320101   -0.804141
H     -5.588478   -2.253038   -1.704768
H     -3.136147   -2.345197   -1.476391
H     -1.008432   -1.326688   -0.672190

