%chk=opt.chk
%mem=2gb
%nproc=1
#p b3lyp 6-31G* opt scf(xqc,tight)

opt calculation

0 1
C      2.898763   -0.737213    0.476120
O      2.339708    0.533730    0.170868
C      0.983800    0.587195   -0.003968
C      0.485953    1.855436   -0.310125
C     -0.880446    2.053704   -0.506710
C     -1.761043    0.978660   -0.401987
C     -1.278552   -0.302267   -0.110276
C     -2.228834   -1.454369    0.036233
C      0.097775   -0.487814    0.100457
H      3.980995   -0.610675    0.577296
H      2.517890   -1.117283    1.429820
H      2.721899   -1.451894   -0.334478
H      1.169733    2.696550   -0.391925
H     -1.256493    3.046438   -0.738386
H     -2.825461    1.145992   -0.550014
H     -1.756926   -2.391328   -0.277777
H     -2.544493   -1.548222    1.079807
H     -3.115848   -1.312569   -0.590130
H      0.451580   -1.484073    0.345175

