%chk=opt.chk
%mem=2gb
%nproc=1
#p b3lyp 6-31G* opt scf(xqc,tight)

opt calculation

0 1
C      4.634841    0.422918   -0.618459
O      3.985050   -0.796757   -0.285898
C      2.616257   -0.774795   -0.223297
C      2.038085   -1.999229    0.106313
C      0.649995   -2.139308    0.213175
C     -0.180571   -1.024402   -0.018167
C     -1.595943   -0.825850    0.018687
C     -2.689177   -1.673156    0.300768
C     -3.990089   -1.162234    0.265580
C     -4.213436    0.174973   -0.043372
C     -3.148287    1.034973   -0.327781
C     -1.843885    0.511970   -0.295083
N     -0.617579    1.101471   -0.532078
C     -0.427113    2.486784   -0.905433
C      0.410113    0.194369   -0.353327
C      1.808421    0.343856   -0.457787
H      4.437045    1.193748    0.133711
H      5.712978    0.235796   -0.626802
H      4.348702    0.762940   -1.619250
H      2.674865   -2.862113    0.286619
H      0.219941   -3.101094    0.475561
H     -2.521940   -2.717466    0.547296
H     -4.830351   -1.816232    0.484108
H     -5.230822    0.558810   -0.064149
H     -3.339712    2.076289   -0.564797
H     -0.231910    3.059102    0.004730
H      0.415962    2.563672   -1.596360
H     -1.320250    2.863039   -1.408721
H      2.228812    1.307927   -0.713083

