%chk=opt.chk
%mem=2gb
%nproc=1
#p b3lyp 6-31G* opt scf(xqc,tight)

opt calculation

0 1
C      8.253945    0.115023   -0.575252
O      7.557959   -0.153932    0.635024
C      6.191194   -0.138793    0.581216
C      5.559121   -0.408967    1.794537
C      4.165708   -0.426130    1.883231
C      3.376378   -0.172178    0.752995
C      1.971713   -0.185705    0.821949
C      1.175555    0.070415   -0.306994
C     -0.292787    0.051007   -0.217470
C     -0.971177   -1.088227    0.244453
C     -2.372301   -1.123572    0.335176
C     -3.046954   -2.263390    0.793952
C     -4.441464   -2.283547    0.878940
C     -5.197784   -1.164156    0.507060
C     -6.598198   -1.167610    0.586754
C     -7.333768   -0.043711    0.212121
C     -6.679583    1.098879   -0.247338
C     -5.280281    1.133065   -0.338548
C     -4.605027    2.271769   -0.797615
C     -3.210480    2.289148   -0.882760
C     -2.454732    1.168515   -0.511436
C     -1.052482    1.170877   -0.591691
C     -3.118998    0.012970   -0.045137
C     -4.533461   -0.006064    0.041165
C      1.820420    0.343931   -1.520716
C      3.215980    0.359875   -1.606946
C      4.008628    0.103732   -0.478615
C      5.414782    0.116686   -0.550693
H      8.029784   -0.640178   -1.335835
H      9.326160    0.064607   -0.362514
H      8.034413    1.123458   -0.941210
H      6.156857   -0.608134    2.680689
H      3.703462   -0.639641    2.844191
H      1.486896   -0.388581    1.775965
H     -0.395345   -1.968264    0.527760
H     -2.490876   -3.150128    1.090561
H     -4.932449   -3.184743    1.239451
H     -7.127537   -2.048698    0.942497
H     -8.418578   -0.058279    0.278420
H     -7.271670    1.964938   -0.534448
H     -5.160185    3.158984   -1.093973
H     -2.718567    3.190133   -1.242904
H     -0.539114    2.065620   -0.941055
H      1.235982    0.536208   -2.418566
H      3.677866    0.572446   -2.568549
H      5.880993    0.330339   -1.507016

