%chk=opt.chk
%mem=2gb
%nproc=1
#p b3lyp 6-31G* opt scf(xqc,tight)

opt calculation

0 1
C     -3.145267   -2.484613    2.019577
O     -3.580945   -1.476710    1.118530
C     -2.624171   -0.770119    0.431604
C     -1.246071   -1.000240    0.546144
C     -0.316722   -0.249554   -0.194547
C      1.063914   -0.480304   -0.082389
C      1.962420    0.294493   -0.815492
O      3.342883    0.055888   -0.770769
C      3.960618    0.150558    0.477122
O      3.404225    0.434962    1.530326
C      5.456536   -0.154924    0.335693
C      5.639526   -1.582736   -0.195566
C      6.099920    0.859631   -0.618851
C      6.132342   -0.043802    1.711914
C      1.515456    1.276293   -1.692363
C      0.145873    1.510083   -1.813075
C     -0.779660    0.756252   -1.070202
C     -2.159841    0.980501   -1.181449
C     -3.097331    0.231615   -0.442684
C     -4.533526    0.526220   -0.608129
C     -5.296665    1.029962    0.457430
C     -6.652220    1.326340    0.293888
C     -7.265986    1.124445   -0.940111
C     -6.526277    0.625267   -2.009664
C     -5.170608    0.329493   -1.844670
H     -4.033745   -2.928360    2.479119
H     -2.611450   -3.281858    1.492147
H     -2.533781   -2.059841    2.822372
H     -0.865565   -1.766803    1.213810
H      1.438572   -1.255418    0.580593
H      5.132804   -2.310418    0.448754
H      5.222702   -1.695937   -1.202611
H      6.699787   -1.854758   -0.245042
H      5.924259    1.886650   -0.278424
H      7.182631    0.706697   -0.689146
H      5.689192    0.779144   -1.631609
H      6.016022    0.962200    2.131565
H      5.694245   -0.749087    2.427738
H      7.205247   -0.256817    1.646902
H      2.222001    1.857587   -2.276837
H     -0.197740    2.285501   -2.494407
H     -2.522273    1.761565   -1.848922
H     -4.831242    1.191458    1.427581
H     -7.226239    1.712426    1.131791
H     -8.320773    1.352710   -1.066866
H     -7.003298    0.462035   -2.972261
H     -4.609777   -0.067676   -2.688037

