%chk=opt.chk
%mem=2gb
%nproc=1
#p b3lyp 6-31G* opt scf(xqc,tight)

opt calculation

0 1
C     -5.243339   -2.183394    0.747341
O     -5.439690   -0.776607    0.812434
C     -4.322057    0.009013    0.739899
C     -4.573810    1.380600    0.764321
C     -3.524543    2.299475    0.695444
C     -2.197509    1.859332    0.602197
C     -1.129689    2.770753    0.534528
C      0.186698    2.319224    0.442242
C      0.435902    0.951759    0.403909
O      1.777139    0.545846    0.369723
C      2.158603   -0.283608   -0.685858
O      1.428175   -0.675341   -1.587362
C      3.645141   -0.635334   -0.552921
C      4.482843    0.649208   -0.602599
C      3.879614   -1.378535    0.768801
C      4.059968   -1.547374   -1.718765
C     -0.603587    0.025784    0.490122
C     -1.932778    0.468843    0.579879
C     -3.003832   -0.442098    0.649284
H     -4.656721   -2.539351    1.600660
H     -6.226739   -2.660707    0.797807
H     -4.780348   -2.474771   -0.201286
H     -5.598080    1.738470    0.835398
H     -3.755525    3.361907    0.714779
H     -1.318888    3.841703    0.556052
H      1.005732    3.030591    0.399525
H      4.262560    1.308827    0.244272
H      5.554984    0.424812   -0.575580
H      4.278575    1.217117   -1.517578
H      3.651447   -0.746356    1.634291
H      4.922306   -1.701943    0.862435
H      3.241680   -2.267097    0.839175
H      5.119588   -1.818993   -1.654154
H      3.476621   -2.475507   -1.724116
H      3.899352   -1.055015   -2.684957
H     -0.379291   -1.037265    0.479019
H     -2.780500   -1.503970    0.628077

