%chk=opt.chk
%mem=2gb
%nproc=1
#p b3lyp 6-31G* opt scf(xqc,tight)

opt calculation

0 1
C      5.073547    0.034363    0.003454
O      3.962263   -0.652994    0.564796
C      2.717550   -0.207947    0.212837
C      2.438869    0.854732   -0.643321
C      1.112585    1.205353   -0.918583
C      0.045360    0.499650   -0.342700
C     -1.290403    0.841543   -0.610859
C     -2.349432    0.129373   -0.029798
C     -3.747071    0.543257   -0.355700
C     -4.895125   -0.212344    0.260962
O     -3.945457    1.487994   -1.117142
C     -2.068882   -0.936793    0.829164
C     -0.742491   -1.285655    1.103001
C      0.322954   -0.577630    0.525251
C      1.659863   -0.916524    0.790983
H      5.089004    1.083094    0.318085
H      5.080768   -0.051999   -1.088131
H      5.984863   -0.439589    0.380689
H      3.226116    1.433213   -1.114871
H      0.919283    2.039382   -1.590675
H     -1.510469    1.672472   -1.280295
H     -4.871259   -1.259477   -0.051547
H     -4.863023   -0.127951    1.350258
H     -5.838244    0.222650   -0.084620
H     -2.858394   -1.514585    1.300177
H     -0.544413   -2.119125    1.774616
H      1.891636   -1.744463    1.457934

