%chk=opt.chk
%mem=2gb
%nproc=1
#p b3lyp 6-31G* opt scf(xqc,tight)

opt calculation

0 1
C     -2.075191   -4.930095   -1.991513
O     -1.565364   -3.790885   -1.313675
C     -0.379616   -3.255543   -1.754765
C      0.324832   -3.728804   -2.861688
C      1.522182   -3.125244   -3.246099
C      2.044511   -2.037990   -2.537501
C      3.252819   -1.447438   -2.951065
C      3.795172   -0.364798   -2.263382
C      3.130667    0.118092   -1.145971
O      3.618455    1.232515   -0.460010
C      4.725060    0.970744    0.346424
O      5.276936   -0.115266    0.476090
C      5.158467    2.257800    1.058714
C      5.538407    3.318316    0.016819
C      4.012367    2.762503    1.945915
C      6.382320    1.965431    1.941809
C      1.922478   -0.436627   -0.726475
C      1.349287   -1.536587   -1.407002
C      0.121027   -2.155309   -1.014754
C     -0.631672   -1.662587    0.158045
C     -0.368205   -2.169370    1.442977
C     -1.063399   -1.694396    2.559351
C     -2.036321   -0.709256    2.406860
C     -2.314764   -0.222722    1.131556
O     -3.246395    0.803976    0.952227
C     -4.577098    0.423389    1.119543
O     -4.972385   -0.697546    1.415049
C     -5.490217    1.635563    0.898559
C     -5.216322    2.256290   -0.478390
C     -6.958740    1.184128    0.954284
C     -5.238207    2.662729    2.009768
C     -1.615976   -0.674264    0.013057
H     -1.377203   -5.771647   -1.931330
H     -3.000978   -5.230351   -1.491129
H     -2.321793   -4.692196   -3.031427
H     -0.029213   -4.567351   -3.451694
H      2.047276   -3.518946   -4.114465
H      3.784713   -1.831742   -3.819074
H      4.726639    0.083237   -2.593747
H      4.680939    3.600748   -0.604154
H      5.912607    4.229493    0.496743
H      6.318340    2.945574   -0.657348
H      3.694151    1.989969    2.655550
H      3.133507    3.039362    1.352758
H      4.314526    3.645742    2.519796
H      7.223204    1.593851    1.344468
H      6.717903    2.866230    2.467775
H      6.154979    1.202968    2.696048
H      1.431853   -0.005138    0.142282
H      0.386235   -2.942991    1.574613
H     -0.845952   -2.097850    3.544570
H     -2.576815   -0.337941    3.271730
H     -5.325830    1.510931   -1.274612
H     -4.199273    2.658170   -0.547273
H     -5.908720    3.079342   -0.687056
H     -7.640598    2.027034    0.795806
H     -7.171503    0.431748    0.185774
H     -7.201473    0.737194    1.925417
H     -5.381131    2.214702    3.000025
H     -5.919933    3.516350    1.922926
H     -4.213802    3.051363    1.975187
H     -1.837768   -0.264601   -0.968341

