%chk=opt.chk
%mem=2gb
%nproc=1
#p b3lyp 6-31G* opt scf(xqc,tight)

opt calculation

0 1
C     -4.482555   -0.593506   -1.938800
C     -4.632536   -0.526353   -0.413295
C     -5.234314   -1.849009    0.088086
C     -5.562827    0.627079   -0.015370
C     -3.255358   -0.318522    0.227568
O     -2.727663   -1.095437    1.013977
O     -2.704003    0.881483   -0.220434
C     -1.439737    1.160172    0.304763
C     -1.330005    2.181088    1.249117
C     -0.072171    2.507719    1.755810
C      1.056583    1.816348    1.300020
C      2.394718    2.139877    1.816125
O      2.581923    3.017709    2.648132
C      3.515430    1.353602    1.276787
C      3.273165    0.414777    0.350184
C      4.357531   -0.409162   -0.218207
C      4.170456   -1.788687   -0.393070
C      5.181996   -2.584102   -0.937379
C      6.391407   -2.009033   -1.320174
C      6.589363   -0.639217   -1.162534
C      5.578159    0.156817   -0.617441
O      2.012735    0.108692   -0.139958
C      0.936436    0.809980    0.342113
C     -0.317231    0.480597   -0.169399
H     -3.774156   -1.377451   -2.230464
H     -4.108522    0.350704   -2.350335
H     -5.442141   -0.807062   -2.422685
H     -4.593198   -2.700106   -0.169504
H     -5.349583   -1.845038    1.178239
H     -6.221646   -2.029177   -0.351751
H     -6.575087    0.472793   -0.405356
H     -5.630274    0.720124    1.074692
H     -5.203715    1.587856   -0.401048
H     -2.212224    2.714249    1.591517
H      0.029462    3.295055    2.499646
H      4.497628    1.574536    1.673693
H      3.233906   -2.258327   -0.098558
H      5.023621   -3.652278   -1.061957
H      7.177993   -2.627678   -1.744569
H      7.530023   -0.187804   -1.467817
H      5.752811    1.226080   -0.520925
H     -0.416400   -0.299388   -0.917641

