%chk=opt.chk
%mem=2gb
%nproc=1
#p b3lyp 6-31G* opt scf(xqc,tight)

opt calculation

0 1
C      4.329400    0.228782   -0.333113
C      3.587788   -1.076284   -0.101462
O      2.607045   -0.926930    0.923377
C      1.347063   -0.534126    0.576281
C      0.427614   -0.532935    1.619813
C     -0.904784   -0.148431    1.406955
C     -1.377797    0.242414    0.143804
N     -2.702943    0.641318   -0.069382
C     -3.214892    0.679184   -1.438232
C     -3.698200    0.378777    0.968526
C     -0.419431    0.252526   -0.885127
C      0.917817   -0.130905   -0.680329
H      5.129157    0.093614   -1.066877
H      3.657006    1.013652   -0.691811
H      4.768191    0.590980    0.602586
H      3.171684   -1.491314   -1.026054
H      4.305195   -1.820118    0.263738
H      0.743856   -0.831278    2.616236
H     -1.559758   -0.166097    2.272033
H     -4.271018    0.970973   -1.460356
H     -2.685604    1.426355   -2.039055
H     -3.134646   -0.303219   -1.916714
H     -3.444860    0.894051    1.901287
H     -4.684350    0.757444    0.676703
H     -3.798370   -0.696063    1.155682
H     -0.684283    0.572121   -1.888353
H      1.589121   -0.084491   -1.530154

