%chk=opt.chk
%mem=2gb
%nproc=1
#p b3lyp 6-31G* opt scf(xqc,tight)

opt calculation

0 1
C      5.833019    1.856630   -0.049647
C      4.639843    0.987598   -0.315651
O      4.259242    0.662706   -1.432005
O      4.066268    0.632305    0.899747
C      2.942562   -0.182408    0.753190
C      3.089565   -1.561558    0.905909
C      1.965748   -2.381229    0.802307
C      0.712039   -1.806899    0.560863
C     -0.489604   -2.646650    0.449007
O     -0.451940   -3.864311    0.566057
C     -1.758109   -1.947990    0.188689
C     -1.760639   -0.611756    0.073876
C     -3.005769    0.140100   -0.175657
C     -3.941181   -0.285689   -1.131363
C     -5.110525    0.444718   -1.360235
C     -5.356913    1.611969   -0.641104
C     -4.433616    2.052885    0.303902
C     -3.264042    1.323433    0.532593
O     -0.632810    0.184822    0.201355
C      0.575141   -0.425257    0.428625
C      1.694004    0.399112    0.531765
H      6.292566    2.141336   -1.000493
H      6.568703    1.305338    0.541264
H      5.521069    2.764847    0.472035
H      4.066495   -1.996026    1.097047
H      2.064472   -3.459387    0.908938
H     -2.644194   -2.564656    0.113289
H     -3.765201   -1.183782   -1.719379
H     -5.826080    0.103859   -2.104315
H     -6.266010    2.180245   -0.820454
H     -4.621680    2.965609    0.863446
H     -2.556487    1.684875    1.275968
H      1.594063    1.475212    0.432003

