%chk=opt.chk
%mem=2gb
%nproc=1
#p b3lyp 6-31G* opt scf(xqc,tight)

opt calculation

0 1
C      3.694821   -0.894971    0.965376
C      3.249190    0.250620    0.064764
C      4.175408    0.389371   -1.140620
C      1.814272    0.026415   -0.384041
O      1.481550   -0.376719   -1.490147
O      0.964553    0.351168    0.671604
C     -0.399235    0.199983    0.350913
C     -1.025384   -1.040897    0.623471
C     -0.357983   -2.150808    1.189082
C     -1.024185   -3.353726    1.428939
C     -2.371169   -3.472929    1.110995
C     -3.051777   -2.388605    0.557549
C     -2.395148   -1.170367    0.312580
C     -3.089848   -0.077538   -0.234108
C     -2.465200    1.159068   -0.471289
C     -3.190538    2.240515   -1.000076
C     -2.579205    3.473649   -1.225986
C     -1.233790    3.643401   -0.924545
C     -0.499698    2.577775   -0.401171
C     -1.096455    1.317572   -0.170028
H      4.729783   -0.754795    1.293952
H      3.065054   -0.959682    1.859108
H      3.626960   -1.857565    0.446344
H      3.284153    1.195974    0.620357
H      4.198933   -0.529972   -1.736306
H      5.198644    0.612865   -0.821194
H      3.840887    1.200252   -1.796921
H      0.695252   -2.085427    1.448657
H     -0.488959   -4.194990    1.861146
H     -2.894292   -4.407925    1.293064
H     -4.107056   -2.501902    0.317948
H     -4.146826   -0.189511   -0.472463
H     -4.245841    2.129202   -1.240508
H     -3.155005    4.299053   -1.636115
H     -0.752673    4.602376   -1.097440
H      0.550808    2.739071   -0.172891

