%chk=opt.chk
%mem=2gb
%nproc=1
#p b3lyp 6-31G* opt scf(xqc,tight)

opt calculation

0 1
C      3.021384    0.695213    1.844280
C      3.002164    1.225170    0.419401
N      2.061997    0.518349   -0.443398
C      2.520793   -0.660155   -1.175832
C      2.264993   -1.964446   -0.436749
C      0.716616    0.885048   -0.398342
O      0.299940    1.817425    0.284579
O     -0.073402    0.093183   -1.225517
C     -1.444111    0.338866   -1.085952
C     -2.066764    1.131531   -2.050837
C     -3.435596    1.365555   -1.956050
C     -4.166749    0.796330   -0.912169
C     -3.535088   -0.013001    0.041154
C     -2.161841   -0.253188   -0.037602
O     -1.445950   -1.047602    0.817481
C     -2.085885   -1.417805    2.031150
H      3.679724    1.310141    2.465999
H      3.392892   -0.332072    1.881942
H      2.021367    0.707934    2.289275
H      4.002755    1.173656   -0.023218
H      2.721664    2.284835    0.443990
H      2.005540   -0.692180   -2.142522
H      3.588668   -0.550551   -1.393963
H      2.828197   -2.010419    0.498758
H      1.205248   -2.089155   -0.194657
H      2.574373   -2.813415   -1.054516
H     -1.488365    1.567266   -2.859216
H     -3.933423    1.989899   -2.693228
H     -5.236422    0.978912   -0.840692
H     -4.146334   -0.446967    0.825045
H     -2.436395   -0.539165    2.583201
H     -2.904863   -2.119421    1.842862
H     -1.347126   -1.929770    2.655342

