%chk=opt.chk
%mem=2gb
%nproc=1
#p b3lyp 6-31G* opt scf(xqc,tight)

opt calculation

0 1
C      4.922032    0.400823   -0.771207
O      3.954108   -0.565809   -1.158984
C      2.699402   -0.425839   -0.633112
C      2.285006    0.567066    0.250857
C      0.963107    0.589341    0.711267
C      0.027288   -0.378480    0.303064
C     -1.402516   -0.292775    0.846136
C     -2.222900   -1.585410    0.684634
N     -2.078244    0.931958    0.358192
C     -3.239053    1.294790    1.167431
C     -2.432943    0.890924   -1.059170
C      0.457160   -1.366344   -0.592841
C      1.779193   -1.388057   -1.051008
H      5.104060    0.366581    0.308056
H      4.627472    1.405652   -1.091679
H      5.861595    0.153469   -1.274710
H      2.957478    1.342442    0.600596
H      0.653499    1.381492    1.391307
H     -1.264701   -0.177567    1.932053
H     -3.181814   -1.518113    1.208297
H     -2.430694   -1.822910   -0.363668
H     -1.685742   -2.438511    1.115651
H     -2.969451    1.368797    2.226737
H     -3.612044    2.282951    0.874698
H     -4.063965    0.581569    1.067905
H     -2.803104    1.870772   -1.382680
H     -1.563717    0.673757   -1.688073
H     -3.212415    0.153021   -1.276974
H     -0.221198   -2.131989   -0.957306
H      2.093100   -2.163602   -1.745470

