%chk=opt.chk
%mem=2gb
%nproc=1
#p b3lyp 6-31G* opt scf(xqc,tight)

opt calculation

0 1
C     -6.269187    0.169173    0.129075
N     -4.956496    0.765484   -0.111566
C     -4.819757    1.495071   -1.371863
C     -3.818723    0.155959    0.435653
C     -3.904178   -0.872763    1.387849
C     -2.767756   -1.474342    1.947947
C     -1.484816   -1.058901    1.583807
C     -0.334783   -1.648064    2.139385
C      0.937435   -1.213620    1.768347
C      1.056844   -0.197499    0.826251
O      2.310343    0.311313    0.465812
C      3.170702   -0.579583   -0.176180
O      2.916299   -1.744099   -0.457447
C      4.498441    0.121634   -0.487575
C      5.443287   -0.864464   -1.193276
C      4.241972    1.316683   -1.415146
C      5.151402    0.587566    0.820438
C     -0.068969    0.413632    0.276415
C     -1.354217   -0.017442    0.643338
C     -2.515678    0.570017    0.096715
H     -7.065448    0.771362   -0.323046
H     -6.329672   -0.837124   -0.299844
H     -6.497407    0.129090    1.199662
H     -4.405908    0.852784   -2.157228
H     -5.789116    1.863724   -1.726146
H     -4.188942    2.381864   -1.249762
H     -4.866218   -1.245087    1.725731
H     -2.903614   -2.270595    2.676104
H     -0.425286   -2.450386    2.868047
H      1.817769   -1.672471    2.207320
H      6.404353   -0.394497   -1.430405
H      5.008795   -1.228756   -2.131491
H      5.645138   -1.739916   -0.565115
H      3.616883    2.076439   -0.932603
H      5.180700    1.799700   -1.708486
H      3.723184    1.002085   -2.328011
H      5.284892   -0.250652    1.513995
H      4.539393    1.338161    1.333112
H      6.134746    1.034207    0.635737
H      0.058334    1.222089   -0.437931
H     -2.374739    1.382225   -0.610255

