%chk=opt.chk
%mem=2gb
%nproc=1
#p b3lyp 6-31G* opt scf(xqc,tight)

opt calculation

0 1
C     -4.216742    0.830299   -0.879692
C     -3.237608    0.168086    0.103115
C     -3.435565   -1.352709    0.055186
C     -3.512698    0.701157    1.515383
C     -1.799066    0.510710   -0.302735
O     -1.493975    1.202614   -1.266102
O     -0.906563   -0.087512    0.587132
C      0.452055    0.151024    0.346817
C      0.985842    1.431664    0.450863
C      2.355404    1.615809    0.258516
C      3.195633    0.523591   -0.019773
C      4.575334    0.695169   -0.214775
C      5.399510   -0.398423   -0.485708
C      4.855979   -1.677291   -0.564888
C      3.486310   -1.866662   -0.374316
C      2.642615   -0.777596   -0.102363
C      1.264027   -0.952474    0.090672
H     -4.100718    1.920380   -0.882182
H     -4.047350    0.481389   -1.905025
H     -5.256735    0.605482   -0.617744
H     -3.185428   -1.751121   -0.934828
H     -2.796968   -1.866870    0.782264
H     -4.473437   -1.624777    0.277362
H     -3.317023    1.778031    1.574567
H     -4.554557    0.529667    1.808108
H     -2.875879    0.214454    2.262624
H      0.349288    2.283511    0.669183
H      2.765004    2.621056    0.327356
H      5.019488    1.686402   -0.157222
H      6.465785   -0.250085   -0.635289
H      5.497382   -2.528843   -0.776432
H      3.080729   -2.873611   -0.441938
H      0.819928   -1.942521    0.040121

