%chk=opt.chk
%mem=2gb
%nproc=1
#p b3lyp 6-31G* opt scf(xqc,tight)

opt calculation

0 1
C      4.590696   -1.378760   -1.414072
C      4.317809    0.021682   -0.849500
C      5.039115    0.209788    0.491726
C      4.835130    1.071377   -1.846270
C      2.809051    0.208998   -0.650556
O      2.134277    1.066096   -1.208457
O      2.333319   -0.738713    0.254759
C      0.963102   -0.641774    0.503005
C      0.547420   -0.110195    1.721469
C     -0.817052   -0.041825    2.001586
C     -1.750162   -0.503099    1.062107
C     -3.188343   -0.412505    1.415476
O     -3.523635   -0.894380    2.498759
C     -4.202499    0.256994    0.464564
C     -4.932649   -0.827399   -0.338044
C     -5.234683    0.997907    1.341010
C     -3.573600    1.290566   -0.481558
C     -1.317775   -1.075536   -0.138920
C      0.047775   -1.146122   -0.420717
H      4.288438   -2.163918   -0.711800
H      5.656039   -1.519581   -1.627830
H      4.034205   -1.543662   -2.343820
H      6.126189    0.147173    0.369593
H      4.803299    1.185534    0.932183
H      4.744779   -0.554164    1.220191
H      5.913317    0.966462   -2.011171
H      4.337456    0.975401   -2.818149
H      4.649748    2.088935   -1.483350
H      1.273187    0.245924    2.446264
H     -1.155037    0.366854    2.951702
H     -4.258175   -1.350818   -1.022138
H     -5.741854   -0.397555   -0.939259
H     -5.371211   -1.583383    0.323740
H     -4.745806    1.746838    1.975053
H     -5.984086    1.511746    0.728299
H     -5.770421    0.308349    2.003873
H     -4.345426    1.854649   -1.018207
H     -2.941262    0.824226   -1.242960
H     -2.957838    2.010687    0.069135
H     -2.023894   -1.480425   -0.855945
H      0.391058   -1.587381   -1.351768

