%chk=opt.chk
%mem=2gb
%nproc=1
#p b3lyp 6-31G* opt scf(xqc,tight)

opt calculation

0 1
C     -5.704222    0.032509   -0.201198
O     -4.832333   -1.090648   -0.196309
C     -3.489404   -0.833023   -0.161014
C     -2.680028   -1.968440   -0.157144
C     -1.288810   -1.851573   -0.122700
C     -0.678271   -0.589608   -0.092031
C      0.723123   -0.454141   -0.057307
C      1.320133    0.806274   -0.028971
O      2.659674    1.072260    0.011254
C      3.593131    0.000771   -0.157027
C      4.847878    0.607164   -0.782183
C      3.931306   -0.611025    1.199336
C      0.509081    1.941163   -0.024571
C     -0.882266    1.825844   -0.059212
C     -1.492887    0.564604   -0.094480
C     -2.893921    0.429119   -0.129431
H     -5.549087    0.648891   -1.092863
H     -5.591833    0.623556    0.713730
H     -6.731885   -0.342297   -0.230771
H     -3.136510   -2.955006   -0.181074
H     -0.687556   -2.757719   -0.120554
H      1.324859   -1.356445   -0.042799
H      3.220498   -0.759336   -0.852986
H      5.259002    1.402419   -0.150270
H      4.607572    1.065898   -1.747615
H      5.620577   -0.151484   -0.940112
H      4.684299   -1.399045    1.100519
H      4.311240    0.151862    1.888140
H      3.043976   -1.042122    1.672900
H      0.965395    2.927835    0.003888
H     -1.482824    2.732385   -0.057351
H     -3.499905    1.329358   -0.130605

