%chk=opt.chk
%mem=2gb
%nproc=1
#p b3lyp 6-31G* opt scf(xqc,tight)

opt calculation

0 1
C     -2.537810   -1.644664   -0.316354
O     -2.345981   -0.254916   -0.549214
C     -1.091320    0.244328   -0.335079
C     -0.956979    1.611176   -0.588610
C      0.267986    2.253092   -0.408016
C      1.374185    1.526825    0.028022
C      1.263168    0.151330    0.280150
C      2.451185   -0.635599    0.774400
F      2.507032   -0.689440    2.133608
F      2.446059   -1.930633    0.349802
F      3.645150   -0.118620    0.370436
C      0.018091   -0.481174    0.102186
H     -3.583323   -1.879583   -0.537986
H     -2.354878   -1.897520    0.733217
H     -1.912388   -2.246778   -0.983709
H     -1.818341    2.181662   -0.928783
H      0.356134    3.318371   -0.606385
H      2.325945    2.037060    0.169643
H     -0.053915   -1.544916    0.312672

