%chk=opt.chk
%mem=2gb
%nproc=1
#p b3lyp 6-31G* opt scf(xqc,tight)

opt calculation

0 1
C     -4.241129    0.250681    0.823343
O     -3.348944   -0.829677    0.581859
C     -2.075464   -0.505921    0.202393
C     -1.572333    0.782985    0.028588
C     -0.242427    0.972933   -0.364382
C      0.599300   -0.122850   -0.592445
C      2.037392    0.085454   -0.997599
C      2.961302    0.205809    0.219873
N      4.356963    0.408046   -0.170129
C      0.091574   -1.413697   -0.410796
C     -1.236178   -1.599723   -0.018796
H     -5.207119   -0.172463    1.115359
H     -3.888714    0.876820    1.649695
H     -4.398174    0.843517   -0.083838
H     -2.185249    1.662914    0.191353
H      0.131406    1.986945   -0.490242
H      2.358376   -0.747722   -1.636423
H      2.110719    0.986633   -1.620347
H      2.649795    1.044657    0.852794
H      2.897373   -0.697444    0.837411
H      4.665283   -0.369251   -0.753191
H      4.433665    1.243543   -0.748957
H      0.722961   -2.284483   -0.571419
H     -1.620378   -2.607707    0.117480

