%chk=opt.chk
%mem=2gb
%nproc=1
#p b3lyp 6-31G* opt scf(xqc,tight)

opt calculation

0 1
C     -4.501713    0.881213   -1.455383
Si    -3.310093    0.008158   -0.281625
C     -3.578838   -1.843291   -0.469444
C     -3.764291    0.513271    1.471645
O     -1.742666    0.437958   -0.653565
C     -0.512375    0.118091   -0.151023
C     -0.290236   -0.745519    0.917049
C      1.014775   -1.004787    1.344708
C      2.112552   -0.408802    0.707246
C      1.889248    0.480150   -0.357770
C      0.574439    0.724022   -0.784413
C      3.032239    1.132454   -1.095551
C      4.348155    1.095801   -0.320601
C      4.601116   -0.300415    0.233607
C      3.503074   -0.689804    1.221671
H     -4.399885    1.966575   -1.364960
H     -4.292283    0.599144   -2.491304
H     -5.535897    0.609659   -1.224506
H     -3.321959   -2.166426   -1.482554
H     -4.626085   -2.099234   -0.282972
H     -2.960385   -2.403997    0.236774
H     -3.617571    1.588468    1.610267
H     -3.148342   -0.014480    2.204925
H     -4.813367    0.280882    1.677647
H     -1.107892   -1.231335    1.436787
H      1.171779   -1.679310    2.183794
H      0.390241    1.394545   -1.620946
H      3.160681    0.610299   -2.052027
H      2.784573    2.177044   -1.319018
H      4.315780    1.818084    0.505018
H      5.171014    1.396709   -0.978623
H      5.575686   -0.338590    0.733001
H      4.634106   -1.022639   -0.592036
H      3.639557   -0.128300    2.154451
H      3.604861   -1.755597    1.458672

