%chk=opt.chk
%mem=2gb
%nproc=1
#p b3lyp 6-31G* opt scf(xqc,tight)

opt calculation

0 1
C     -3.767657   -0.307402    0.771291
C     -2.550033    0.139514   -0.052556
C     -2.575172    1.667496   -0.171278
C     -2.611191   -0.542996   -1.423649
O     -1.403816   -0.311642    0.710788
C     -0.141061   -0.081200    0.267732
O      0.161161    0.498614   -0.764356
O      0.729359   -0.623044    1.199075
C      2.071235   -0.452030    0.858644
C      2.719996   -1.444912    0.126701
C      4.073178   -1.293162   -0.172402
C      4.764897   -0.163776    0.272407
C      4.107521    0.814936    1.021956
C      2.754446    0.669750    1.324777
H     -4.710287   -0.021099    0.293060
H     -3.766311   -1.394897    0.910164
H     -3.741430    0.132128    1.775311
H     -3.520011    2.018228   -0.600370
H     -1.768340    2.041974   -0.808361
H     -2.443131    2.135888    0.810554
H     -1.805017   -0.208902   -2.083613
H     -2.504473   -1.628897   -1.322415
H     -3.558305   -0.331877   -1.931839
H      2.180548   -2.324419   -0.210497
H      4.590706   -2.054022   -0.750763
H      5.819889   -0.047344    0.036563
H      4.651685    1.689045    1.369899
H      2.241614    1.424051    1.913225

