%chk=opt.chk
%mem=2gb
%nproc=1
#p b3lyp 6-31G* opt scf(xqc,tight)

opt calculation

0 1
C     -2.233790    2.323238    0.604296
O     -1.132873    1.440777    0.441426
C     -1.392614    0.168109   -0.004751
C     -2.680839   -0.330437   -0.242995
C     -2.864805   -1.634697   -0.707545
C     -1.766221   -2.454118   -0.937771
C     -0.480192   -1.969311   -0.701895
C     -0.267524   -0.657997   -0.232395
C      1.115168   -0.199628    0.004289
C      2.038688   -0.122237   -1.051651
C      3.353726    0.294259   -0.828049
C      3.766865    0.638616    0.456805
C      2.866430    0.568441    1.517145
C      1.551849    0.151947    1.291763
H     -1.840366    3.291897    0.927413
H     -2.761209    2.478502   -0.342650
H     -2.913823    1.964948    1.383960
H     -3.566686    0.272965   -0.076293
H     -3.869086   -2.009453   -0.888339
H     -1.906861   -3.470201   -1.296650
H      0.370190   -2.626225   -0.876337
H      1.730431   -0.379192   -2.062845
H      4.052181    0.352374   -1.658393
H      4.788593    0.964646    0.631305
H      3.183347    0.839207    2.520539
H      0.859425    0.103572    2.129618

