%chk=opt.chk
%mem=2gb
%nproc=1
#p b3lyp 6-31G* opt scf(xqc,tight)

opt calculation

0 1
C     -4.727073    1.342727    0.064221
O     -3.321339    1.135152   -0.079431
C     -2.896992   -0.078050    0.354354
O     -3.603764   -0.954385    0.827164
C     -1.425012   -0.216036    0.177049
C     -0.636768    0.798392   -0.388902
C      0.741125    0.619048   -0.534613
C      1.325828   -0.568998   -0.097859
O      2.693332   -0.797063   -0.274109
C      3.513399   -0.024820    0.541494
C      4.943666   -0.367658    0.247148
O      3.160276    0.802546    1.370504
C      0.557462   -1.594552    0.447495
C     -0.819503   -1.413503    0.590654
H     -5.285153    0.612280   -0.529910
H     -5.017085    1.289298    1.118290
H     -4.961346    2.343598   -0.308758
H     -1.081745    1.733436   -0.720086
H      1.347537    1.405196   -0.974942
H      5.170638   -0.144695   -0.798373
H      5.598560    0.235981    0.882044
H      5.124105   -1.423315    0.464756
H      1.020994   -2.524700    0.762636
H     -1.421146   -2.209878    1.025415

