%chk=opt.chk
%mem=2gb
%nproc=1
#p b3lyp 6-31G* opt scf(xqc,tight)

opt calculation

0 1
C      6.768770    0.236978   -0.662767
C      5.379830   -0.300148   -0.482934
O      5.079519   -1.480798   -0.592107
O      4.529231    0.759297   -0.184194
C      3.188119    0.415502    0.023992
C      2.808878   -0.384033    1.097658
C      1.455161   -0.655188    1.299703
C      0.477521   -0.116673    0.444635
C     -0.889938   -0.381436    0.638297
C     -1.874391    0.154475   -0.209905
C     -3.301123   -0.133658    0.008843
C     -4.094048   -0.680130   -1.013979
C     -5.448626   -0.954615   -0.806880
C     -6.033654   -0.685562    0.427827
C     -5.265711   -0.143272    1.455120
C     -3.910972    0.129491    1.246796
C     -1.457629    0.971811   -1.269898
C     -0.102937    1.247707   -1.478603
C      0.875619    0.710160   -0.631264
C      2.238985    0.976965   -0.828401
H      7.102746    0.717640    0.260164
H      7.449253   -0.588356   -0.891099
H      6.787551    0.944680   -1.495300
H      3.551801   -0.803512    1.769035
H      1.166224   -1.292545    2.132586
H     -1.196051   -1.028317    1.459310
H     -3.653624   -0.908757   -1.982497
H     -6.043939   -1.381209   -1.609889
H     -7.087005   -0.898674    0.589392
H     -5.719550    0.070614    2.419205
H     -3.331337    0.563282    2.059241
H     -2.192796    1.412852   -1.940370
H      0.179319    1.888432   -2.310985
H      2.564803    1.616996   -1.643481

