%chk=opt.chk
%mem=2gb
%nproc=1
#p b3lyp 6-31G* opt scf(xqc,tight)

opt calculation

0 1
C      6.998664    0.097837   -0.584889
O      6.149703   -0.671839    0.256917
C      4.803699   -0.470188    0.126840
C      4.186796    0.417905   -0.751776
C      2.789622    0.524275   -0.780272
C      1.980658   -0.252583    0.064432
C      0.513765   -0.137878    0.029031
C     -0.297221   -1.268184   -0.149030
C     -1.693050   -1.159225   -0.183080
C     -2.326634    0.083760   -0.040146
C     -3.793852    0.198203   -0.075579
C     -4.601516   -0.578501    0.772019
C     -5.994555   -0.470105    0.739535
C     -6.604351    0.417367   -0.143326
C     -5.822853    1.196358   -0.992649
C     -4.429893    1.087507   -0.957972
C     -1.515678    1.214019    0.138135
C     -0.119819    1.105141    0.172188
C      2.617249   -1.141917    0.942378
C      4.011613   -1.247568    0.972300
H      6.888967    1.168601   -0.383560
H      6.816882   -0.127266   -1.641007
H      8.033068   -0.178749   -0.359154
H      4.757709    1.041564   -1.431103
H      2.332347    1.217197   -1.484267
H      0.154370   -2.249893   -0.278475
H     -2.284943   -2.059228   -0.338122
H     -4.145135   -1.269854    1.477659
H     -6.600953   -1.077524    1.406249
H     -7.687509    0.501801   -0.169407
H     -6.295263    1.887867   -1.685326
H     -3.838658    1.697159   -1.638315
H     -1.967894    2.195249    0.268694
H      0.471508    2.005224    0.328504
H      2.030451   -1.754957    1.623262
H      4.482706   -1.941575    1.664064

