%chk=opt.chk
%mem=2gb
%nproc=1
#p b3lyp 6-31G* opt scf(xqc,tight)

opt calculation

0 1
C      3.172477   -0.710951   -0.871883
O      1.870031   -1.035508   -0.405266
C      1.006659    0.003997   -0.148253
C      1.335096    1.353656   -0.318749
C      0.400440    2.348061   -0.035063
C     -0.869860    2.004525    0.421152
C     -1.226989    0.661107    0.601365
C     -2.509965    0.319417    1.061907
C     -2.874844   -1.014207    1.244418
C     -1.961642   -2.024135    0.968832
C     -0.683170   -1.699408    0.510570
C     -0.285016   -0.358129    0.316164
H      3.716357   -1.648588   -1.022007
H      3.129493   -0.194553   -1.836427
H      3.723135   -0.123433   -0.129957
H      2.311819    1.666284   -0.671533
H      0.662722    3.394323   -0.169908
H     -1.582875    2.797523    0.636154
H     -3.239296    1.095608    1.283269
H     -3.870804   -1.262090    1.601219
H     -2.238586   -3.065516    1.108568
H      0.014819   -2.507982    0.301480

