%chk=opt.chk
%mem=2gb
%nproc=1
#p b3lyp 6-31G* opt scf(xqc,tight)

opt calculation

0 1
C     -6.014452    0.707591   -0.482078
C     -4.679557    0.041906   -0.323945
O     -4.501075   -1.166166   -0.395002
O     -3.719375    1.021214   -0.094476
C     -2.419912    0.535376    0.083904
C     -2.078728   -0.176390    1.229851
C     -0.760274   -0.598630    1.401483
C      0.221229   -0.298068    0.441253
C      1.549457   -0.718430    0.604296
C      2.505668   -0.387853   -0.355835
O      3.822618   -0.844621   -0.239456
C      4.549549   -0.265704    0.794961
C      5.927939   -0.857333    0.801614
O      4.163221    0.586392    1.582969
C      2.164873    0.326324   -1.499313
C      0.846478    0.748064   -1.672216
C     -0.135583    0.445464   -0.713032
C     -1.464394    0.863899   -0.876259
H     -6.267289    1.252781    0.430732
H     -5.992569    1.382486   -1.341348
H     -6.780259   -0.053776   -0.655942
H     -2.826032   -0.410116    1.981770
H     -0.501544   -1.163121    2.294695
H      1.841529   -1.294025    1.478119
H      6.508391   -0.413499    1.615527
H      6.429896   -0.638217   -0.144081
H      5.867507   -1.936118    0.965754
H      2.914354    0.555895   -2.250357
H      0.587847    1.312677   -2.565255
H     -1.759509    1.441997   -1.747335

