%chk=opt.chk
%mem=2gb
%nproc=1
#p b3lyp 6-31G* opt scf(xqc,tight)

opt calculation

0 1
C      4.530299    0.370763    1.080385
N      3.992324   -0.181299   -0.150392
C      4.908706   -0.925859   -0.991957
C      2.625544   -0.285857   -0.391192
O      2.155541   -0.878723   -1.357607
O      1.865101    0.352825    0.586524
C      0.475370    0.269781    0.449522
C     -0.235889    1.451539    0.310262
C     -1.634149    1.408715    0.231461
C     -2.356137    0.199542    0.290312
N     -3.756857    0.165891    0.224663
C     -4.465287    1.344860   -0.271590
C     -4.415387   -1.114247   -0.033236
C     -1.588381   -0.968924    0.470323
C     -0.189741   -0.943008    0.552196
H      5.473354    0.881278    0.864181
H      4.709694   -0.450505    1.780398
H      3.846848    1.087973    1.540750
H      4.451110   -1.202995   -1.945362
H      5.206897   -1.836604   -0.464111
H      5.791738   -0.312013   -1.191924
H      0.282277    2.404043    0.263951
H     -2.145094    2.360445    0.126606
H     -5.548617    1.179602   -0.285747
H     -4.155297    1.590981   -1.293248
H     -4.304498    2.208950    0.381860
H     -4.088399   -1.541524   -0.987694
H     -5.504162   -0.997769   -0.079334
H     -4.226358   -1.827994    0.775668
H     -2.061629   -1.941877    0.556063
H      0.361078   -1.867992    0.690345

