%chk=opt.chk
%mem=2gb
%nproc=1
#p b3lyp 6-31G* opt scf(xqc,tight)

opt calculation

0 1
C      5.587980    1.285566    0.192173
O      4.940796    0.135730   -0.337477
C      3.591644    0.039118   -0.134411
C      2.797068    0.955474    0.550000
C      1.419296    0.735658    0.676925
C      0.804602   -0.394869    0.117660
C      1.623085   -1.339046   -0.531420
C      3.000100   -1.105312   -0.672056
C      1.003366   -2.587920   -1.100008
C     -0.184758   -3.046905   -0.253075
C     -1.088077   -1.906860    0.117396
C     -0.667749   -0.633489    0.241219
N     -1.504898    0.452735    0.518853
C     -1.531839    1.628946   -0.373211
C     -2.747184    1.558970   -1.297501
C     -4.041792    1.427222   -0.499046
C     -3.966761    0.247837    0.467784
C     -2.717576    0.329450    1.343735
H      5.505017    1.317659    1.283582
H      6.650907    1.215946   -0.058443
H      5.198538    2.202776   -0.261930
H      3.210792    1.850514    1.000984
H      0.823319    1.456596    1.231401
H      3.623762   -1.825744   -1.196340
H      1.739067   -3.399239   -1.149551
H      0.676891   -2.375390   -2.125931
H      0.161082   -3.532515    0.667701
H     -0.751811   -3.795957   -0.817692
H     -2.135698   -2.154084    0.242527
H     -1.574571    2.539441    0.237037
H     -0.626953    1.700620   -0.986644
H     -2.648120    0.698940   -1.971552
H     -2.788856    2.457265   -1.923390
H     -4.219863    2.351428    0.064277
H     -4.889597    1.297456   -1.180729
H     -4.861418    0.230917    1.100112
H     -3.963306   -0.685721   -0.106705
H     -2.661043   -0.540684    2.008400
H     -2.785439    1.207472    1.998510

