%chk=opt.chk
%mem=2gb
%nproc=1
#p b3lyp 6-31G* opt scf(xqc,tight)

opt calculation

0 1
C     -1.617287    1.486524   -1.832406
O     -2.595939    0.601995   -1.301399
C     -2.092781   -0.266961   -0.356785
N     -2.988685   -1.101262    0.149735
C     -2.501321   -1.936468    1.058897
O     -3.333653   -2.855625    1.661866
C     -4.677059   -2.786742    1.201394
N     -1.243127   -1.987600    1.471615
C     -0.444293   -1.103153    0.890344
O      0.879381   -1.152492    1.320014
C      1.739127   -0.254109    0.740474
C      1.942039    0.989556    1.342622
C      2.842776    1.893277    0.775476
C      3.544644    1.532344   -0.384645
N      4.489931    2.481708   -0.986547
O      4.619005    3.588540   -0.444420
O      5.099967    2.121473   -2.003316
C      3.355922    0.272970   -0.973813
C      2.453282   -0.625236   -0.400854
N     -0.807951   -0.214664   -0.031893
H     -1.200091    2.133287   -1.052522
H     -0.824562    0.937173   -2.352482
H     -2.111918    2.129454   -2.566896
H     -5.126580   -1.813969    1.429143
H     -5.251882   -3.550244    1.734702
H     -4.742882   -3.009733    0.130695
H      1.399103    1.255105    2.246346
H      2.987983    2.863385    1.246560
H      3.901556   -0.021518   -1.868017
H      2.305296   -1.607013   -0.843888

