%chk=opt.chk
%mem=2gb
%nproc=1
#p b3lyp 6-31G* opt scf(xqc,tight)

opt calculation

0 1
C     -3.185286    1.106969   -1.439415
C     -2.542866    0.563933   -0.152772
C     -3.523607   -0.397735    0.530074
C     -2.215223    1.743672    0.772794
C     -1.255326   -0.189906   -0.505827
O     -0.868533   -0.406007   -1.649234
O     -0.636499   -0.632554    0.659631
C      0.658657   -1.113984    0.419052
C      0.836048   -2.499759    0.382030
C      2.109497   -3.010851    0.169440
C      3.184987   -2.136497    0.010047
C      2.995676   -0.741544    0.070276
C      4.069331    0.147071   -0.077196
C      3.851758    1.517231   -0.004377
C      2.562100    1.957268    0.218600
N      1.501974    1.134856    0.368461
C      1.710543   -0.201060    0.286402
H     -2.504947    1.786081   -1.966401
H     -4.107036    1.658243   -1.222129
H     -3.437476    0.295157   -2.131578
H     -3.126016   -0.772341    1.480038
H     -3.725368   -1.269536   -0.102933
H     -4.479032    0.094705    0.742611
H     -3.109303    2.339828    0.986848
H     -1.808011    1.405375    1.732200
H     -1.468453    2.404806    0.318194
H     -0.012356   -3.165415    0.506098
H      2.267254   -4.085319    0.124385
H      4.177583   -2.548942   -0.159216
H      5.076556   -0.223480   -0.249693
H      4.667235    2.222042   -0.118409
H      2.336140    3.017690    0.284827

