%chk=opt.chk
%mem=2gb
%nproc=1
#p b3lyp 6-31G* opt scf(xqc,tight)

opt calculation

0 1
C      6.732797   -1.404804   -2.023584
O      5.603573   -1.514775   -1.168165
C      5.476842   -0.458540   -0.289415
N      6.381315    0.516757   -0.293307
C      6.149711    1.475514    0.598160
O      7.008912    2.549749    0.684897
C      8.122057    2.460504   -0.193681
N      5.131081    1.524574    1.442225
C      4.292670    0.500933    1.327450
O      3.228634    0.492367    2.216782
C      2.000757    0.513976    1.600685
C      1.517083    1.697906    1.045435
C      0.248068    1.718130    0.468537
C     -0.544499    0.558306    0.444980
C     -0.045650   -0.629640    1.006917
C      1.220745   -0.641795    1.604540
C     -0.887997   -1.872142    0.964510
C     -1.573108   -1.960286   -0.393768
C     -2.483730   -0.752610   -0.688535
C     -1.955406    0.613229   -0.117213
C     -2.889597    1.222007    0.964212
C     -4.363388    1.356982    0.544984
C     -4.803646    0.265471   -0.432391
C     -4.847946    0.810552   -1.872923
C     -6.166715   -0.350789   -0.161922
O     -7.159758    0.278017    0.176826
C     -6.160547   -1.847949   -0.396015
C     -4.729406   -2.116368   -0.874077
C     -3.928563   -0.990005   -0.223087
N      4.416500   -0.532120    0.498854
H      6.686079   -0.496421   -2.635551
H      6.720499   -2.262831   -2.703110
H      7.667616   -1.444360   -1.451887
H      8.734993    3.354809   -0.047165
H      8.743559    1.590529    0.040152
H      7.804009    2.446458   -1.241256
H      2.115489    2.605077    1.074190
H     -0.128395    2.649980    0.051132
H      1.612257   -1.550637    2.054808
H     -1.619493   -1.850476    1.778475
H     -0.261962   -2.760514    1.103274
H     -0.800531   -2.007657   -1.174233
H     -2.125001   -2.902893   -0.466430
H     -2.502005   -0.662775   -1.783722
H     -1.934105    1.314561   -0.963149
H     -2.842099    0.601103    1.870343
H     -2.527180    2.210984    1.272468
H     -4.982728    1.348658    1.451816
H     -4.513249    2.349221    0.098285
H     -5.578695    1.624553   -1.951839
H     -3.883573    1.209215   -2.196887
H     -5.154896    0.049515   -2.597576
H     -6.360627   -2.354203    0.552065
H     -6.897320   -2.130181   -1.151206
H     -4.668602   -2.074986   -1.967032
H     -4.395596   -3.109979   -0.561761
H     -3.899232   -1.229900    0.852618

