%chk=opt.chk
%mem=2gb
%nproc=1
#p b3lyp 6-31G* opt scf(xqc,tight)

opt calculation

0 1
C      2.780269    1.344565   -0.046997
O      2.598453    0.025960    0.452858
C      1.329004   -0.483485    0.432144
C      1.219140   -1.781954    0.936699
C     -0.015447   -2.427476    0.977131
C     -1.153104   -1.772763    0.509989
C     -1.059589   -0.470425    0.000956
C     -2.309515    0.187310   -0.487423
C     -2.233271    1.587125   -1.038888
O     -3.380397   -0.414503   -0.435438
C      0.187435    0.172830   -0.036343
H      3.842253    1.592748    0.042189
H      2.511683    1.404988   -1.106801
H      2.216908    2.072292    0.546309
H      2.106359   -2.294728    1.301890
H     -0.090389   -3.437621    1.371528
H     -2.114360   -2.282989    0.544545
H     -3.233945    1.906896   -1.346408
H     -1.585169    1.613401   -1.918660
H     -1.879116    2.278823   -0.270218
H      0.262801    1.179007   -0.429062

