%chk=opt.chk
%mem=2gb
%nproc=1
#p b3lyp 6-31G* opt scf(xqc,tight)

opt calculation

0 1
O      0.988413   -0.110346   -0.749240
C      0.951070   -0.061508    0.471722
C      2.136879   -0.118383    1.412588
C      3.473426   -0.234248    0.720934
C      4.188478    0.915619    0.357434
C      5.420320    0.806857   -0.289856
C      5.946043   -0.449390   -0.584857
C      5.238999   -1.598552   -0.236914
C      4.006963   -1.493067    0.410517
O     -0.198896    0.055782    1.257205
C     -1.385967    0.118434    0.500500
C     -2.067669   -1.089379    0.213379
C     -1.618526   -2.363266    0.629443
C     -2.327770   -3.522499    0.310787
C     -3.500886   -3.433775   -0.427978
C     -3.966133   -2.186437   -0.843975
C     -3.264474   -1.010221   -0.528765
C     -3.744873    0.245025   -0.940347
C     -3.075584    1.439606   -0.622759
C     -3.590777    2.681879   -1.030800
C     -2.937669    3.871336   -0.708322
C     -1.760494    3.835488    0.028436
C     -1.235195    2.609050    0.438682
C     -1.876432    1.390953    0.118232
H      2.130262    0.787221    2.031356
H      2.004242   -0.975949    2.083392
H      3.789674    1.905051    0.569088
H      5.966907    1.703235   -0.570900
H      6.902546   -0.532712   -1.093852
H      5.644018   -2.578168   -0.476813
H      3.464828   -2.401282    0.663664
H     -0.704483   -2.462139    1.209167
H     -1.961193   -4.491857    0.637837
H     -4.055622   -4.333247   -0.681533
H     -4.888102   -2.138659   -1.419805
H     -4.668842    0.294213   -1.515193
H     -4.512530    2.732044   -1.606768
H     -3.349643    4.823154   -1.032964
H     -1.247925    4.759382    0.282770
H     -0.313383    2.610752    1.014511

