%chk=opt.chk
%mem=2gb
%nproc=1
#p b3lyp 6-31G* opt scf(xqc,tight)

opt calculation

0 1
C      4.828855   -0.057507   -0.640583
C      3.712695    0.214824   -1.432662
C      2.487252    0.512322   -0.834648
C      2.379312    0.520746    0.558508
O      1.211249    0.839975    1.213468
C      0.055617    0.234493    0.774195
C     -0.039638   -1.141412    0.568673
C     -1.252008   -1.697495    0.156129
C     -2.383166   -0.888018   -0.039107
C     -3.608889   -1.432328   -0.454663
C     -4.726220   -0.616113   -0.638783
C     -4.633274    0.753464   -0.408968
C     -3.422508    1.311065    0.004872
C     -2.288491    0.504626    0.193097
C     -1.063802    1.050797    0.607910
C      3.500320    0.271146    1.350783
C      4.724257   -0.025774    0.750443
H      5.783201   -0.286557   -1.108135
H      3.798245    0.201928   -2.516111
H      1.627795    0.741352   -1.458411
H      0.819293   -1.786478    0.730983
H     -1.308867   -2.771379   -0.006721
H     -3.702491   -2.500455   -0.637483
H     -5.668913   -1.051101   -0.960408
H     -5.503142    1.389465   -0.550957
H     -3.369860    2.383390    0.179850
H     -0.971720    2.117118    0.798531
H      3.418458    0.303906    2.433608
H      5.596440   -0.227782    1.366590

