%chk=opt.chk
%mem=2gb
%nproc=1
#p b3lyp 6-31G* opt scf(xqc,tight)

opt calculation

0 1
C     -1.230085    2.134025   -0.529093
Si    -1.460364    0.283933   -0.719285
C     -1.412543   -0.177418   -2.535258
O     -0.328845   -0.579927    0.168844
C      1.029836   -0.579091    0.012661
C      1.626157   -1.565686   -0.765368
C      3.013527   -1.580776   -0.913888
C      3.813548   -0.618852   -0.274578
C      5.210508   -0.619611   -0.415073
C      5.993205    0.338429    0.231543
C      5.390432    1.308083    1.027581
C      4.002975    1.323407    1.178673
C      3.200631    0.368619    0.533465
C      1.804390    0.372104    0.674990
C     -3.165938   -0.197603   -0.007182
C     -3.274910   -1.096312    1.068458
C     -4.526853   -1.441940    1.582584
C     -5.684489   -0.897074    1.032227
C     -5.593517   -0.005071   -0.033653
C     -4.344232    0.344370   -0.552058
H     -2.007804    2.681716   -1.069641
H     -0.259069    2.445364   -0.925572
H     -1.276923    2.424011    0.524828
H     -2.185333    0.357933   -3.094849
H     -1.576402   -1.251174   -2.666556
H     -0.441637    0.075043   -2.971905
H      1.018544   -2.321650   -1.254054
H      3.468224   -2.353629   -1.529347
H      5.700927   -1.370573   -1.030396
H      7.073693    0.325353    0.114372
H      5.999547    2.053131    1.532782
H      3.550811    2.088468    1.805920
H      1.317561    1.112811    1.303602
H     -2.387926   -1.538829    1.520023
H     -4.596117   -2.138055    2.414398
H     -6.656954   -1.167754    1.434201
H     -6.496979    0.420076   -0.462937
H     -4.307596    1.044147   -1.385080

