%chk=opt.chk
%mem=2gb
%nproc=1
#p b3lyp 6-31G* opt scf(xqc,tight)

opt calculation

0 1
C      6.772994   -0.576842   -0.313919
C      5.805669    0.507283    0.083841
O      6.202355    1.629234    0.392950
C      4.343599    0.202251    0.102138
C      3.844177   -1.069382   -0.192605
C      2.466203   -1.306301   -0.161401
C      1.565897   -0.280021    0.162917
C      0.181869   -0.508101    0.196676
C     -0.687581    0.538301    0.503470
O     -2.071071    0.335791    0.597876
C     -2.717390   -0.125510   -0.549866
O     -2.182043   -0.358868   -1.626355
C     -4.213937   -0.298153   -0.264247
C     -4.818732    1.053127    0.138908
C     -4.406007   -1.328254    0.856568
C     -4.920579   -0.802911   -1.532689
C     -0.207039    1.805051    0.817018
C      1.167634    2.040202    0.789541
C      2.065548    1.009725    0.462257
C      3.451408    1.233697    0.428900
H      6.734577   -1.400048    0.404064
H      7.789168   -0.170022   -0.311360
H      6.554409   -0.928938   -1.325382
H      4.500241   -1.895569   -0.449700
H      2.097894   -2.303140   -0.397465
H     -0.218587   -1.493723   -0.024264
H     -4.635444    1.811669   -0.630803
H     -5.901678    0.974856    0.286110
H     -4.385228    1.427842    1.072969
H     -3.966762   -0.985771    1.800262
H     -3.926256   -2.280455    0.602378
H     -5.468825   -1.522560    1.038850
H     -4.510346   -1.765474   -1.859697
H     -4.799119   -0.097144   -2.362677
H     -5.994734   -0.937720   -1.363094
H     -0.892022    2.605845    1.078805
H      1.536375    3.035983    1.027628
H      3.843365    2.224050    0.658537

