%chk=opt.chk
%mem=2gb
%nproc=1
#p b3lyp 6-31G* opt scf(xqc,tight)

opt calculation

0 1
C      5.108248    0.416824    0.709080
O      4.851153    0.623975   -0.674301
C      3.898384   -0.302044   -1.199860
C      2.481023    0.081382   -0.849779
C      2.034497    1.395254   -1.030986
C      0.717726    1.746862   -0.727402
C     -0.185396    0.789651   -0.242375
C     -1.511613    1.128664    0.065658
C     -2.389979    0.152052    0.532229
O     -3.685209    0.561358    0.874682
C     -4.722900   -0.069693    0.195747
C     -6.025917    0.482289    0.693161
O     -4.625182   -0.930039   -0.668142
C     -1.967750   -1.158138    0.734911
C     -0.651082   -1.504774    0.429123
C      0.251108   -0.544228   -0.060792
C      1.579605   -0.881389   -0.371771
H      5.854761    1.148272    1.030472
H      4.202580    0.564561    1.304474
H      5.511495   -0.586302    0.878195
H      4.142182   -1.318416   -0.867773
H      3.995116   -0.288884   -2.291413
H      2.718780    2.153908   -1.407066
H      0.403203    2.777403   -0.876102
H     -1.863893    2.148784   -0.059005
H     -6.076104    1.554762    0.489225
H     -6.850815   -0.010991    0.171065
H     -6.126328    0.287773    1.763885
H     -2.650943   -1.910553    1.116879
H     -0.332689   -2.534296    0.576730
H      1.915937   -1.908018   -0.238747

