%chk=opt.chk
%mem=2gb
%nproc=1
#p b3lyp 6-31G* opt scf(xqc,tight)

opt calculation

0 1
C     -4.741626    1.162129   -1.826164
C     -4.283694    0.490067   -0.521689
C     -4.986973   -0.866939   -0.386738
C     -4.641768    1.400394    0.660372
C     -2.765533    0.278944   -0.563477
O     -2.042403    0.604485   -1.497429
O     -2.344078   -0.334520    0.615707
C     -0.969051   -0.571755    0.680298
C     -0.527002   -1.891220    0.614525
C      0.838583   -2.157068    0.717166
C      1.748621   -1.103757    0.883341
C      3.192530   -1.429424    0.991897
O      3.529827   -2.455327    1.577338
C      4.233735   -0.544214    0.409815
C      4.015679    0.170114   -0.774845
C      5.026053    0.982661   -1.293790
C      6.255438    1.073876   -0.640663
C      6.482817    0.347154    0.527788
C      5.476184   -0.466152    1.050159
C      1.285521    0.215288    0.991171
C     -0.080709    0.482813    0.890848
H     -4.254046    2.134138   -1.964771
H     -5.824763    1.328103   -1.829535
H     -4.495098    0.545652   -2.698471
H     -4.735471   -1.360671    0.558657
H     -6.076342   -0.754151   -0.420192
H     -4.691642   -1.545382   -1.195394
H     -4.384872    0.937333    1.619726
H     -5.714366    1.623462    0.678535
H     -4.098953    2.350962    0.603571
H     -1.233434   -2.705597    0.485170
H      1.195616   -3.183955    0.667592
H      3.075242    0.091858   -1.314589
H      4.858049    1.537655   -2.213758
H      7.042144    1.703690   -1.049276
H      7.445592    0.407956    1.029099
H      5.661185   -1.039998    1.956139
H      1.973165    1.038486    1.167293
H     -0.444157    1.502912    0.972877

