%chk=opt.chk
%mem=2gb
%nproc=1
#p b3lyp 6-31G* opt scf(xqc,tight)

opt calculation

0 1
C      4.697961    0.394870   -0.464030
O      3.834265   -0.619631    0.032032
C      2.491096   -0.424023   -0.136209
C      1.684454   -1.446542    0.367128
C      0.293402   -1.375589    0.262637
C     -0.313038   -0.276263   -0.354504
C     -1.815487   -0.188204   -0.454533
C     -2.433379    0.402322    0.815026
C     -3.941785    0.582797    0.697305
O     -4.600363   -0.670857    0.588072
C      0.497268    0.751189   -0.852691
C      1.891092    0.677106   -0.746476
H      4.597846    0.503135   -1.549093
H      5.727558    0.089460   -0.253991
H      4.522695    1.347386    0.046941
H      2.144084   -2.306783    0.847559
H     -0.311100   -2.183732    0.668233
H     -2.088010    0.422037   -1.324924
H     -2.217969   -1.189715   -0.650379
H     -1.976638    1.375528    1.032735
H     -2.213334   -0.257241    1.663874
H     -4.209086    1.202588   -0.164905
H     -4.323500    1.077019    1.596201
H     -4.463822   -1.004490   -0.314473
H      0.049595    1.620924   -1.328466
H      2.476194    1.496709   -1.149235

