%chk=opt.chk
%mem=2gb
%nproc=1
#p b3lyp 6-31G* opt scf(xqc,tight)

opt calculation

0 1
C      2.404265    0.607792    2.027123
C      2.216120    1.385059    0.734393
N      1.897788    0.530640   -0.407922
C      2.986111    0.034041   -1.243708
C      3.506256   -1.323727   -0.798964
C      0.607916    0.061242   -0.651664
O      0.336055   -0.703183   -1.572894
O     -0.316031    0.556345    0.264857
C     -1.635162    0.132291    0.044202
C     -2.474847    0.918152   -0.761505
C     -1.971800    2.155080   -1.444992
C     -3.795084    0.495251   -0.953850
C     -4.266194   -0.662409   -0.331825
C     -3.424885   -1.413653    0.491015
C     -2.097962   -1.020189    0.699296
C     -1.197199   -1.833261    1.580743
H      2.573326    1.297529    2.860012
H      3.267053   -0.060708    1.967886
H      1.525565   -0.000259    2.261443
H      1.403819    2.108244    0.868755
H      3.116287    1.965694    0.505298
H      3.796617    0.770650   -1.254294
H      2.621444   -0.050605   -2.274259
H      4.270733   -1.681132   -1.496008
H      2.703424   -2.066950   -0.762752
H      3.959137   -1.271193    0.194478
H     -1.333264    1.884595   -2.291604
H     -1.403122    2.778779   -0.747566
H     -2.799142    2.765793   -1.821826
H     -4.467663    1.064036   -1.591723
H     -5.293362   -0.981397   -0.490124
H     -3.814170   -2.311178    0.966021
H     -1.750239   -2.624904    2.097278
H     -0.741985   -1.199816    2.348627
H     -0.409805   -2.306648    0.986054

