%chk=opt.chk
%mem=2gb
%nproc=1
#p b3lyp 6-31G* opt scf(xqc,tight)

opt calculation

0 1
C      4.827772    0.517431    1.078594
N      3.401334    0.302617    1.311775
C      3.074176   -0.904558    2.075868
C      2.483069    0.690286    0.321971
C      2.873730    1.354693   -0.857301
C      1.950684    1.754203   -1.836037
C      0.596704    1.505859   -1.660159
C      0.186180    0.854794   -0.505959
O     -1.191392    0.680897   -0.317831
C     -1.633255   -0.636445   -0.193913
O     -0.930936   -1.638061   -0.256662
C     -3.149715   -0.650257    0.034007
C     -3.855286    0.015984   -1.154679
C     -3.477033    0.090933    1.337066
C     -3.635286   -2.104192    0.150942
C      1.102448    0.474680    0.481461
H      5.409358    0.259919    1.971174
H      5.043607    1.571783    0.873746
H      5.191866   -0.101966    0.251564
H      3.903470   -1.192369    2.732299
H      2.871865   -1.752038    1.411062
H      2.214861   -0.739848    2.733867
H      3.918499    1.575177   -1.054390
H      2.300021    2.261764   -2.731210
H     -0.123986    1.820317   -2.407553
H     -3.580550   -0.469888   -2.098091
H     -4.944684   -0.038651   -1.050543
H     -3.585584    1.074288   -1.244314
H     -2.933662   -0.343758    2.184172
H     -4.548403    0.043778    1.561778
H     -3.197866    1.149240    1.281614
H     -4.717676   -2.150517    0.315025
H     -3.410493   -2.672412   -0.759240
H     -3.148262   -2.619951    0.986780
H      0.714426    0.016269    1.384259

