%chk=opt.chk
%mem=2gb
%nproc=1
#p b3lyp 6-31G* opt scf(xqc,tight)

opt calculation

0 1
C      5.981981    2.035319   -2.003528
O      5.669366    2.164417   -0.622524
C      4.571357    1.485661   -0.169592
C      4.307472    1.649070    1.190001
C      3.216064    1.013016    1.784937
C      2.365693    0.197696    1.025388
C      1.260406   -0.448864    1.605359
C      0.401622   -1.260747    0.845462
C     -0.756711   -1.923918    1.473676
C     -0.515189   -2.938717    2.422877
C     -1.563108   -3.615627    3.047007
C     -2.876994   -3.291404    2.735335
C     -3.141131   -2.290529    1.800159
C     -2.099362   -1.591294    1.156053
C     -2.455578   -0.535802    0.187843
C     -2.154395    0.811641    0.441337
C     -2.482937    1.816386   -0.478449
C     -2.096854    3.240660   -0.210009
C     -3.115107    1.464471   -1.676447
C     -3.449378    0.132128   -1.944922
C     -4.102238   -0.240685   -3.242722
C     -3.108030   -0.858083   -1.013803
C      0.678523   -1.425522   -0.517510
C      1.773405   -0.789478   -1.109375
C      2.626256    0.026588   -0.351628
C      3.730814    0.675594   -0.935513
H      6.876288    2.634171   -2.201118
H      6.213878    0.996429   -2.260419
H      5.173886    2.427649   -2.629738
H      4.957450    2.278381    1.792973
H      3.036564    1.161399    2.847122
H      1.053715   -0.310584    2.665469
H      0.508636   -3.213216    2.672474
H     -1.350192   -4.395473    3.773338
H     -3.698323   -3.812998    3.219470
H     -4.177490   -2.042104    1.576297
H     -1.646765    1.079799    1.366364
H     -2.786381    3.933105   -0.704201
H     -2.131750    3.458713    0.862582
H     -1.083260    3.428677   -0.577303
H     -3.348918    2.236115   -2.407446
H     -4.742464   -1.120484   -3.119166
H     -3.339191   -0.460745   -3.995610
H     -4.736956    0.573058   -3.608985
H     -3.340394   -1.899381   -1.230763
H      0.033370   -2.049546   -1.132559
H      1.949795   -0.936393   -2.172381
H      3.912551    0.531454   -1.995555

