%chk=opt.chk
%mem=2gb
%nproc=1
#p b3lyp 6-31G* opt scf(xqc,tight)

opt calculation

0 1
C     -4.238881    1.238788    0.766699
C     -3.260281    0.197114    0.202550
C     -3.780920   -0.274378   -1.159787
C     -3.146024   -0.957874    1.203822
O     -2.003667    0.906695    0.070689
C     -0.898983    0.276862   -0.405187
O     -0.837779   -0.889194   -0.764046
O      0.133981    1.199410   -0.406223
C      1.352437    0.660086   -0.840640
C      1.599866    0.627273   -2.214937
C      2.812386    0.127446   -2.675156
C      3.772185   -0.320380   -1.764277
C      3.539633   -0.268698   -0.377872
C      4.513256   -0.708071    0.534399
C      4.286254   -0.647310    1.909909
C      3.083313   -0.144886    2.393273
C      2.104004    0.294237    1.500990
C      2.310525    0.236870    0.105879
H     -5.239695    0.819467    0.914215
H     -3.881963    1.628749    1.727158
H     -4.320474    2.101003    0.094494
H     -4.803017   -0.660852   -1.083586
H     -3.161198   -1.071347   -1.581516
H     -3.772109    0.547242   -1.884823
H     -2.690836   -0.616706    2.140445
H     -2.514592   -1.767147    0.825037
H     -4.127828   -1.387773    1.429834
H      0.852397    0.980023   -2.918941
H      3.014447    0.084262   -3.742168
H      4.713905   -0.709166   -2.146872
H      5.462337   -1.102093    0.177319
H      5.050333   -0.991288    2.602055
H      2.904506   -0.094130    3.464056
H      1.172482    0.685765    1.903209

