%chk=opt.chk
%mem=2gb
%nproc=1
#p b3lyp 6-31G* opt scf(xqc,tight)

opt calculation

0 1
C      5.396824    1.182321    0.470982
N      4.919210   -0.058999   -0.111956
C      5.901255   -0.892284   -0.778099
C      3.568049   -0.328100   -0.306122
O      3.157260   -1.307427   -0.920692
O      2.745891    0.639718    0.270515
C      1.356289    0.502488    0.120783
C      0.759936    0.419106   -1.138411
C     -0.629549    0.344954   -1.231286
C     -1.397567    0.360632   -0.065903
O     -2.793021    0.347324   -0.222903
C     -3.522710   -0.618961    0.469068
O     -3.024100   -1.475423    1.192580
N     -4.892235   -0.504076    0.252536
C     -5.794410   -1.342515    1.017812
C     -5.482378    0.608511   -0.470406
C     -0.803260    0.486483    1.190722
C      0.586476    0.555362    1.283898
H      5.636990    1.876695   -0.339488
H      4.652209    1.642207    1.124651
H      6.296551    0.980547    1.059607
H      6.735832   -1.078206   -0.095874
H      5.478829   -1.852720   -1.085217
H      6.263526   -0.364643   -1.665432
H      1.364931    0.405153   -2.039812
H     -1.107856    0.273590   -2.203258
H     -6.603386   -1.686461    0.366767
H     -6.210738   -0.750413    1.838217
H     -5.284328   -2.215171    1.434308
H     -5.792531    1.367641    0.253661
H     -4.781090    1.057012   -1.177697
H     -6.355253    0.253846   -1.026326
H     -1.409448    0.524492    2.090623
H      1.063800    0.647317    2.254620

