%chk=opt.chk
%mem=2gb
%nproc=1
#p b3lyp 6-31G* opt scf(xqc,tight)

opt calculation

0 1
C      7.701024    0.189445    0.771186
C      6.981615    0.938685   -0.334440
O      5.568537    0.952648   -0.083553
C      4.875737   -0.114983   -0.552695
O      5.346851   -1.068990   -1.151319
C      3.427500    0.019921   -0.235750
C      2.911482    1.112402    0.469632
C      1.542650    1.189218    0.742036
C      0.667461    0.178672    0.315192
C     -0.707834    0.245583    0.583876
C     -1.554127   -0.765987    0.130529
O     -2.922337   -0.755481    0.429252
C     -3.657336    0.310686   -0.090376
O     -3.210437    1.216734   -0.782630
C     -5.124709    0.180753    0.335126
C     -5.929825    1.355278   -0.243928
C     -5.701734   -1.133984   -0.206104
C     -5.219194    0.218667    1.866148
C     -1.056957   -1.868084   -0.556311
C      0.309505   -1.944678   -0.826001
C      1.183269   -0.929733   -0.399429
C      2.560508   -0.994923   -0.665754
H      7.465337    0.625587    1.747509
H      7.385253   -0.857956    0.806034
H      8.783835    0.222940    0.621477
H      7.208253    0.515161   -1.319652
H      7.313890    1.981817   -0.348992
H      3.559915    1.914201    0.814171
H      1.163140    2.050148    1.289207
H     -1.120813    1.085689    1.135498
H     -5.879476    1.370093   -1.338868
H     -6.986020    1.292911    0.041261
H     -5.543156    2.316559    0.113908
H     -5.195721   -2.005435    0.224475
H     -6.768728   -1.224228    0.026187
H     -5.585461   -1.196423   -1.294271
H     -4.705882   -0.634186    2.324353
H     -6.262545    0.193687    2.199879
H     -4.757037    1.128482    2.266498
H     -1.722810   -2.661219   -0.882606
H      0.690492   -2.805692   -1.371521
H      2.965885   -1.843988   -1.214940

