%chk=opt.chk
%mem=2gb
%nproc=1
#p b3lyp 6-31G* opt scf(xqc,tight)

opt calculation

0 1
C      7.082668   -0.349941    1.164431
C      5.998307    0.187952    0.216718
C      5.890974   -0.739248   -1.000679
C      6.384007    1.607586   -0.221605
C      4.651562    0.215944    0.949537
O      4.465808   -0.216669    2.081106
O      3.682404    0.794103    0.129335
C      2.390066    0.857349    0.682610
C      2.159717    1.720837    1.755758
C      0.882889    1.809652    2.293287
C     -0.156243    1.057283    1.741606
C      0.050626    0.206681    0.630657
C     -0.991223   -0.540993    0.033910
O     -2.269431   -0.467361    0.537035
Si    -3.595596    0.345812   -0.101374
C     -3.301125    1.009256   -1.833278
C     -4.137952    1.746138    1.031017
C     -5.182543   -0.997149   -0.213708
C     -4.776630   -2.166758   -1.133034
C     -5.482758   -1.525856    1.204369
C     -6.420480   -0.278596   -0.783799
C     -0.748844   -1.400756   -1.041384
C      0.531233   -1.499825   -1.571064
C      1.570315   -0.751788   -1.016429
C      1.354794    0.101880    0.088297
H      7.179490    0.281779    2.055584
H      6.845817   -1.363734    1.507178
H      8.060511   -0.384967    0.670873
H      5.166280   -0.362897   -1.731104
H      6.855412   -0.836361   -1.511370
H      5.561898   -1.741883   -0.704400
H      7.379716    1.625045   -0.678564
H      6.390755    2.294751    0.632315
H      5.678381    2.010515   -0.956872
H      2.970632    2.303163    2.182223
H      0.692270    2.457725    3.144779
H     -1.144200    1.135905    2.190914
H     -4.191836    1.517740   -2.212624
H     -3.046478    0.202419   -2.525741
H     -2.476431    1.728964   -1.829862
H     -3.356847    2.509831    1.092441
H     -5.051116    2.221819    0.660900
H     -4.327751    1.371272    2.041194
H     -3.901009   -2.698299   -0.743823
H     -5.592566   -2.894413   -1.219063
H     -4.535157   -1.819559   -2.144540
H     -5.784782   -0.718250    1.879715
H     -4.607996   -2.016995    1.643440
H     -6.298429   -2.258323    1.181048
H     -6.734800    0.552873   -0.141938
H     -7.267845   -0.970305   -0.863962
H     -6.229171    0.126775   -1.784652
H     -1.553780   -1.993453   -1.465915
H      0.723725   -2.160155   -2.412961
H      2.562761   -0.846515   -1.450986

