%chk=opt.chk
%mem=2gb
%nproc=1
#p b3lyp 6-31G* opt scf(xqc,tight)

opt calculation

0 1
C      4.377636   -1.952000   -0.684057
C      3.419660   -1.413917    0.366365
N      2.688072   -0.250939   -0.119752
C      3.263557    1.071594    0.105817
C      2.786115    1.677426    1.416053
C      1.448489   -0.437972   -0.726023
O      0.959163   -1.547821   -0.920651
O      0.857760    0.766015   -1.096688
C     -0.452190    0.619336   -1.537346
C     -0.733116    0.680056   -2.901591
C     -2.061444    0.567525   -3.342212
C     -3.107141    0.408717   -2.424796
C     -2.799652    0.362674   -1.074031
C     -1.491275    0.475849   -0.637761
O     -1.355874    0.441506    0.725441
C     -2.662915    0.029967    1.216087
C     -2.984804    0.883829    2.443334
C     -2.567367   -1.447577    1.619153
C     -3.703482    0.251659    0.093812
H      4.912991   -2.825331   -0.299243
H      3.840454   -2.250817   -1.590207
H      5.116298   -1.195728   -0.968687
H      2.711548   -2.202787    0.643751
H      3.964331   -1.136295    1.275470
H      2.992587    1.735176   -0.722242
H      4.355852    0.986609    0.101454
H      1.696825    1.787131    1.428425
H      3.066398    1.047106    2.266209
H      3.231222    2.666333    1.562086
H      0.071044    0.805886   -3.620017
H     -2.278800    0.607005   -4.407040
H     -4.133709    0.329847   -2.768685
H     -3.962283    0.629005    2.865249
H     -2.981996    1.949620    2.187823
H     -2.223632    0.752228    3.220790
H     -2.298865   -2.075592    0.762106
H     -3.513657   -1.812373    2.031551
H     -1.780688   -1.595339    2.367832
H     -4.412014   -0.577191    0.004749
H     -4.255100    1.189580    0.220653

