%chk=opt.chk
%mem=2gb
%nproc=1
#p b3lyp 6-31G* opt scf(xqc,tight)

opt calculation

0 1
C      5.852438    0.645871   -0.496464
O      5.025063   -0.302080   -1.158736
C      3.696288   -0.293756   -0.836501
C      3.080137    0.547173    0.089037
C      1.702179    0.448242    0.323674
C      0.920807   -0.484168   -0.369629
C     -0.520405   -0.638076   -0.127635
C     -1.356572    0.390603    0.087768
C     -2.798176    0.235112    0.329159
C     -3.578205   -0.694407   -0.371301
C     -4.951982   -0.791632   -0.134460
C     -5.561113    0.046155    0.797302
C     -4.798929    0.985278    1.488619
C     -3.425474    1.083036    1.251283
C      1.548828   -1.335800   -1.284081
C      2.923678   -1.235510   -1.518129
H      6.873618    0.515009   -0.867299
H      5.543018    1.670467   -0.727969
H      5.865934    0.470835    0.584391
H      3.639204    1.287318    0.651210
H      1.251191    1.102855    1.065622
H     -0.888149   -1.661307   -0.139557
H     -0.990604    1.414256    0.099259
H     -3.128179   -1.344615   -1.117283
H     -5.546065   -1.518227   -0.682527
H     -6.629701   -0.029338    0.980565
H     -5.272413    1.643503    2.212303
H     -2.847476    1.822523    1.800728
H      0.975158   -2.080099   -1.831260
H      3.395902   -1.899220   -2.238266

