%chk=opt.chk
%mem=2gb
%nproc=1
#p b3lyp 6-31G* opt scf(xqc,tight)

opt calculation

0 1
C      4.733454   -0.988534    0.710365
C      3.815484   -1.270446    1.721707
C      2.474358   -0.918906    1.563310
C      2.054394   -0.272466    0.399252
O      0.712502   -0.001010    0.294844
C      0.269283    1.157977   -0.187144
N      0.987666    2.237251   -0.417040
N      0.115392    3.185047   -0.871230
N     -1.121289    2.715087   -0.914104
N     -1.059056    1.427409   -0.480924
C     -2.225993    0.619586   -0.401698
C     -2.178358   -0.717859    0.013732
C     -3.352208   -1.476627    0.076350
C     -4.576646   -0.911912   -0.273086
C     -4.634482    0.415165   -0.688326
C     -3.467066    1.179382   -0.753912
C      2.969065   -0.009015   -0.622340
C      4.310503   -0.360871   -0.461421
H      5.778937   -1.259955    0.833667
H      4.144808   -1.763731    2.632508
H      1.761469   -1.143606    2.351729
H     -1.256787   -1.216379    0.294266
H     -3.309463   -2.514848    0.398590
H     -5.485443   -1.506595   -0.222628
H     -5.588936    0.858531   -0.962377
H     -3.550311    2.214440   -1.082949
H      2.653344    0.468412   -1.545816
H      5.025381   -0.145525   -1.251575

