%chk=opt.chk
%mem=2gb
%nproc=1
#p b3lyp 6-31G* opt scf(xqc,tight)

opt calculation

0 1
C     -3.594608   -2.229859    1.063031
O     -2.285649   -1.767192    0.759315
C     -2.269789   -0.556832    0.099449
N     -3.414454    0.039818   -0.213085
C     -3.264675    1.194759   -0.852382
O     -4.376781    1.913120   -1.237361
C     -5.604275    1.295341   -0.875007
N     -2.112277    1.759937   -1.178018
C     -1.042717    1.070280   -0.801821
O      0.170875    1.649494   -1.160497
C      1.294698    1.116626   -0.581994
C      1.641767    1.451892    0.726136
C      2.813869    0.934152    1.281179
C      3.647102    0.093706    0.527072
C      4.888334   -0.435720    1.167789
C      5.758923   -1.390663    0.393695
O      5.186126   -0.088211    2.308921
C      3.299095   -0.215431   -0.795150
C      2.126162    0.303796   -1.351376
N     -1.057014   -0.099397   -0.169080
H     -3.497818   -3.184210    1.589773
H     -4.173796   -2.411390    0.150915
H     -4.118119   -1.534767    1.728808
H     -5.695870    1.199763    0.212613
H     -6.417866    1.940363   -1.220880
H     -5.720236    0.322664   -1.365790
H      1.007315    2.108452    1.314907
H      3.075906    1.190419    2.306419
H      6.585470   -1.720236    1.031114
H      6.181798   -0.891342   -0.481782
H      5.187227   -2.275374    0.101652
H      3.922198   -0.852984   -1.414993
H      1.859081    0.069026   -2.378360

