%chk=opt.chk
%mem=2gb
%nproc=1
#p b3lyp 6-31G* opt scf(xqc,tight)

opt calculation

0 1
C     -2.863183   -2.234883   -1.013639
C     -2.405987   -1.590529    0.285069
N     -1.605444   -0.396791    0.040447
C     -2.293794    0.887165   -0.058883
C     -2.389883    1.580212    1.290811
C     -0.222459   -0.519379   -0.048950
O      0.363541   -1.596186    0.019506
O      0.405012    0.708058   -0.238970
C      1.796880    0.623608   -0.205309
C      2.505014    0.662086   -1.404606
C      3.900056    0.616647   -1.371336
C      4.573514    0.546952   -0.146975
C      3.853911    0.527692    1.050166
C      2.464778    0.572056    1.015852
F      1.776447    0.578212    2.166393
H     -3.476662   -1.544892   -1.601946
H     -3.458188   -3.129403   -0.805781
H     -2.007076   -2.528077   -1.630138
H     -3.268908   -1.318675    0.902850
H     -1.816134   -2.315684    0.856856
H     -1.761055    1.534668   -0.763432
H     -3.294222    0.720486   -0.473217
H     -2.941512    0.966203    2.010063
H     -1.396466    1.771258    1.709541
H     -2.908854    2.538300    1.190135
H      1.979389    0.717693   -2.352785
H      4.465141    0.633911   -2.300342
H      5.660086    0.509368   -0.126930
H      4.366057    0.479926    2.005551

