%chk=opt.chk
%mem=2gb
%nproc=1
#p b3lyp 6-31G* opt scf(xqc,tight)

opt calculation

0 1
C     -3.974682   -0.233482   -0.015455
O     -2.813949   -0.766996   -0.640105
C     -1.605533   -0.290349   -0.211277
C     -1.407744    0.668395    0.779658
C     -0.111090    1.067528    1.122382
C      1.007437    0.514802    0.480240
C      2.313604    0.907022    0.815197
C      3.407288    0.341032    0.160617
Br     5.159246    0.880848    0.624252
C      3.221175   -0.617468   -0.830741
C      1.927115   -1.015107   -1.172063
C      0.811373   -0.458078   -0.525581
C     -0.496959   -0.846676   -0.856625
H     -3.986537   -0.461050    1.055591
H     -4.058416    0.843877   -0.192522
H     -4.847997   -0.713719   -0.467258
H     -2.237359    1.127118    1.306913
H      0.017292    1.818096    1.899672
H      2.475942    1.654832    1.587656
H      4.070937   -1.060638   -1.342897
H      1.794093   -1.765381   -1.948786
H     -0.665236   -1.594605   -1.628867

