%chk=opt.chk
%mem=2gb
%nproc=1
#p b3lyp 6-31G* opt scf(xqc,tight)

opt calculation

0 1
C     -1.360487    2.344929    0.802926
O     -2.520505    1.530092    0.683029
C     -2.247842    0.263358    0.210930
N     -3.311882   -0.516965    0.090964
C     -3.042757   -1.734742   -0.364063
O     -4.065890   -2.643802   -0.534189
C     -5.342644   -2.127141   -0.181722
N     -1.843939   -2.197148   -0.688513
C     -0.860806   -1.321740   -0.523639
O      0.401110   -1.800120   -0.865113
C      1.448508   -0.933197   -0.682042
C      1.873582   -0.136666   -1.743856
C      2.962716    0.718747   -1.570402
C      3.644666    0.760498   -0.346254
C      4.795102    1.703905   -0.151425
C      3.209464   -0.052977    0.709288
C      2.120677   -0.909448    0.538933
N     -0.999753   -0.075526   -0.078258
H     -1.677075    3.321524    1.181961
H     -0.650615    1.923686    1.523523
H     -0.884181    2.505517   -0.170705
H     -6.080512   -2.917452   -0.350951
H     -5.616805   -1.276524   -0.815522
H     -5.383798   -1.856961    0.879281
H      1.358050   -0.175615   -2.698960
H      3.280498    1.348941   -2.398057
H      5.333927    1.862329   -1.091514
H      4.429651    2.668389    0.214233
H      5.513339    1.300426    0.570050
H      3.720765   -0.027937    1.669003
H      1.797435   -1.548381    1.355487

