%chk=opt.chk
%mem=2gb
%nproc=1
#p b3lyp 6-31G* opt scf(xqc,tight)

opt calculation

0 1
C     -3.453573    0.173136    0.586702
O     -2.546823    0.875015   -0.254164
C     -1.251713    0.436143   -0.268995
C     -0.734745   -0.623846    0.475309
C      0.617393   -0.967767    0.364509
C      1.467052   -0.262220   -0.497303
C      2.926269   -0.617698   -0.586460
O      3.656874    0.001384    0.463512
C      0.946428    0.808085   -1.232409
C     -0.403631    1.148851   -1.119549
H     -3.160557    0.255479    1.638564
H     -4.438161    0.638213    0.478370
H     -3.545009   -0.874625    0.281811
H     -1.353204   -1.202240    1.153361
H      1.006484   -1.792374    0.959225
H      3.066191   -1.701759   -0.519857
H      3.350144   -0.292545   -1.542393
H      3.064102    0.634053    0.904641
H      1.585526    1.384946   -1.897443
H     -0.799048    1.979767   -1.699112

