%chk=opt.chk
%mem=2gb
%nproc=1
#p b3lyp 6-31G* opt scf(xqc,tight)

opt calculation

0 1
C      3.765524    2.561203   -0.793574
N      2.882321    1.683008   -0.026512
C      2.887713    1.932062    1.418823
C      3.041692    0.296024   -0.293630
C      4.315655   -0.294803   -0.359393
C      4.464330   -1.661119   -0.587160
C      3.340602   -2.466458   -0.749277
C      2.051840   -1.919951   -0.687800
C      0.923884   -2.744116   -0.856216
C     -0.364550   -2.215665   -0.803387
C     -0.524311   -0.856657   -0.568649
O     -1.797075   -0.280130   -0.566904
C     -2.572887   -0.581932    0.551257
O     -2.236981   -1.297344    1.487390
C     -3.931151    0.121365    0.438804
C     -4.782704   -0.211832    1.674760
C     -4.661755   -0.371897   -0.817278
C     -3.718358    1.639784    0.375070
C      0.575895   -0.015554   -0.417178
C      1.889761   -0.527617   -0.458799
H      3.748544    2.305414   -1.859231
H      3.414856    3.595613   -0.705951
H      4.799389    2.530947   -0.432356
H      2.652516    2.984167    1.614058
H      3.866504    1.715969    1.862734
H      2.127196    1.332729    1.932087
H      5.210122    0.302681   -0.212622
H      5.457720   -2.099367   -0.630986
H      3.479706   -3.531269   -0.923313
H      1.043702   -3.810958   -1.032014
H     -1.226102   -2.861446   -0.938475
H     -4.951101   -1.291674    1.762038
H     -4.290148    0.117662    2.597190
H     -5.762585    0.276268    1.626351
H     -4.118848   -0.106501   -1.731595
H     -4.767566   -1.462986   -0.808118
H     -5.664043    0.064783   -0.890351
H     -3.146003    1.993552    1.240507
H     -3.162801    1.933236   -0.522974
H     -4.674925    2.174017    0.360316
H      0.414424    1.048794   -0.267640

