%chk=opt.chk
%mem=2gb
%nproc=1
#p b3lyp 6-31G* opt scf(xqc,tight)

opt calculation

0 1
C     -3.563801    1.809223    1.707027
C     -3.956572    1.706037    0.237556
C     -3.905346    0.274828   -0.345908
C     -4.949969   -0.619974    0.343390
C     -4.216403    0.284561   -1.850864
O     -2.635386   -0.379664   -0.088235
C     -1.481093    0.123803   -0.584606
O     -1.357621    1.123885   -1.271750
C     -0.330615   -0.724253   -0.169421
C     -0.491641   -1.900076    0.581907
C      0.620618   -2.669283    0.939469
C      1.898530   -2.268824    0.554526
C      2.052375   -1.090353   -0.173639
O      3.319245   -0.691605   -0.612121
C      4.151028   -0.178396    0.380969
O      3.829842   -0.065269    1.560276
N      5.394873    0.201488   -0.113460
C      5.692601    0.235009   -1.534591
C      6.305409    0.910747    0.764447
C      0.954027   -0.323324   -0.555102
H     -2.557335    1.418897    1.883748
H     -3.573817    2.858232    2.021075
H     -4.264223    1.268496    2.349621
H     -4.965456    2.118893    0.111118
H     -3.287786    2.364977   -0.327710
H     -5.957932   -0.198997    0.268323
H     -4.960673   -1.619583   -0.107620
H     -4.711278   -0.773606    1.401225
H     -4.081036   -0.713252   -2.283337
H     -5.244244    0.611315   -2.042548
H     -3.551950    0.957034   -2.401795
H     -1.478847   -2.231665    0.894965
H      0.488761   -3.579171    1.519858
H      2.764598   -2.863549    0.830026
H      5.100355   -0.494107   -2.092499
H      5.472269    1.237609   -1.912659
H      6.752128    0.009340   -1.686701
H      7.328233    0.577160    0.566838
H      6.075184    0.730641    1.817951
H      6.223015    1.982762    0.561946
H      1.099934    0.580016   -1.141696

