%chk=opt.chk
%mem=2gb
%nproc=1
#p b3lyp 6-31G* opt scf(xqc,tight)

opt calculation

0 1
C     -4.364204   -0.491021    0.039320
O     -3.639995    0.626992    0.536509
C     -2.276650    0.577515    0.438118
C     -1.617251    1.698787    0.940833
C     -0.223894    1.781869    0.904505
C      0.537518    0.738061    0.361663
C      1.940242    0.803611    0.316481
C      2.700739   -0.246638   -0.222528
C      4.204599   -0.148889   -0.283348
F      4.822273   -1.362748   -0.240464
F      4.735860    0.572891    0.742941
F      4.638542    0.450787   -1.425950
C      2.036210   -1.367573   -0.735327
C      0.641745   -1.444843   -0.696274
C     -0.122352   -0.401423   -0.150398
C     -1.527972   -0.468058   -0.105584
H     -5.429652   -0.294137    0.192583
H     -4.111380   -1.402301    0.591315
H     -4.200989   -0.620689   -1.035666
H     -2.193967    2.517007    1.365615
H      0.258520    2.670434    1.305316
H      2.451692    1.683246    0.707648
H      2.602868   -2.190999   -1.168191
H      0.154330   -2.330565   -1.099248
H     -2.016832   -1.351314   -0.503906

