%chk=opt.chk
%mem=2gb
%nproc=1
#p b3lyp 6-31G* opt scf(xqc,tight)

opt calculation

0 1
C     -3.230366    1.850046    0.167439
C     -3.281939    0.439157   -0.453309
C     -4.584474   -0.275537   -0.047021
C     -3.181930    0.535712   -1.989302
Si    -1.643449   -0.651531    0.248160
C     -1.820287   -0.757067    2.112987
C     -1.761214   -2.360217   -0.517683
O     -0.266561    0.165186   -0.218635
C      1.073985   -0.048622   -0.058241
C      1.628001   -1.133334    0.615231
C      3.017221   -1.254248    0.720107
C      3.869366   -0.293325    0.153646
C      5.266145   -0.401875    0.251158
C      6.097911    0.563571   -0.318518
C      5.544614    1.648563   -0.992144
C      4.158220    1.770731   -1.097722
C      3.307647    0.808014   -0.530131
C      1.910800    0.914799   -0.626570
H     -4.063028    2.463507   -0.195104
H     -2.299802    2.368847   -0.089500
H     -3.300320    1.812495    1.260143
H     -4.674447   -0.363768    1.041089
H     -4.640510   -1.284505   -0.469757
H     -5.458320    0.280457   -0.405483
H     -3.216821   -0.453690   -2.458526
H     -2.250106    1.020452   -2.302112
H     -4.013602    1.122526   -2.395585
H     -1.793758    0.239522    2.562794
H     -2.764961   -1.234051    2.389069
H     -1.006836   -1.345982    2.546417
H     -2.705671   -2.843079   -0.251250
H     -1.700094   -2.302285   -1.608154
H     -0.945920   -2.999128   -0.166293
H      1.008989   -1.899571    1.068284
H      3.430929   -2.109170    1.250393
H      5.717245   -1.242419    0.773521
H      7.177306    0.467420   -0.235688
H      6.190936    2.401069   -1.436216
H      3.743690    2.625325   -1.627826
H      1.461412    1.756002   -1.149295

