%chk=opt.chk
%mem=2gb
%nproc=1
#p b3lyp 6-31G* opt scf(xqc,tight)

opt calculation

0 1
O      2.906078   -0.374877    1.453365
C      3.220310   -0.089999    0.301488
O      2.341682    0.013588   -0.782481
C      1.005792   -0.236751   -0.461068
C      0.560144   -1.544509   -0.298828
C     -0.788700   -1.772363   -0.025596
C     -1.694162   -0.700954    0.069833
C     -3.053909   -0.917283    0.343929
C     -3.943890    0.154566    0.431095
C     -3.487020    1.456008    0.245028
C     -2.138414    1.690160   -0.027974
C     -1.229209    0.623855   -0.117663
C      0.129071    0.844191   -0.390852
C      4.628180    0.205579   -0.194451
F      5.043981   -0.692799   -1.132970
F      5.564656    0.181450    0.794670
F      4.724973    1.434438   -0.778862
H      1.246519   -2.381860   -0.376762
H     -1.132421   -2.795312    0.111917
H     -3.431469   -1.926548    0.492495
H     -4.993874   -0.028109    0.644736
H     -4.179949    2.290670    0.313306
H     -1.801763    2.714877   -0.168680
H      0.503392    1.851982   -0.547235

