%chk=opt.chk
%mem=2gb
%nproc=1
#p b3lyp 6-31G* opt scf(xqc,tight)

opt calculation

0 1
C      4.918076   -0.765465   -0.054003
O      4.054948   -0.550175   -1.163326
C      2.807521   -0.061884   -0.888858
C      1.999298    0.138249   -2.008632
C      0.699182    0.633301   -1.873322
C      0.178966    0.941893   -0.607122
C     -1.241320    1.465721   -0.479525
Cl    -1.247271    3.084981    0.291442
C     -2.196698    0.491077    0.192579
C     -2.379355    0.437536    1.584949
C     -3.248916   -0.493254    2.158932
C     -3.942855   -1.391986    1.353196
C     -3.766152   -1.364450   -0.027250
C     -2.898024   -0.434078   -0.602651
C      0.999743    0.734575    0.513488
C      2.302042    0.238476    0.374421
H      4.505649   -1.517201    0.627092
H      5.127911    0.172282    0.471081
H      5.867254   -1.150626   -0.438926
H      2.386590   -0.094089   -2.997888
H      0.099726    0.775014   -2.769959
H     -1.632737    1.671017   -1.483310
H     -1.847239    1.121080    2.243018
H     -3.382120   -0.516603    3.237586
H     -4.617778   -2.116125    1.801719
H     -4.301583   -2.070197   -0.657195
H     -2.769384   -0.439433   -1.683396
H      0.633297    0.960787    1.512681
H      2.891229    0.099579    1.274596

