%chk=opt.chk
%mem=2gb
%nproc=1
#p b3lyp 6-31G* opt scf(xqc,tight)

opt calculation

0 1
C     -5.131889   -0.101690   -1.929909
O     -4.705204   -0.892422   -0.827546
C     -3.442101   -0.481180   -0.300781
C     -2.282478   -1.080268   -1.099439
C     -0.943181   -0.725320   -0.504633
C     -0.392877   -1.507961    0.521475
C      0.832864   -1.161652    1.091670
C      1.527502   -0.043583    0.629299
O      2.709658    0.245596    1.253033
C      3.791200    0.421047    0.335239
O      5.048479    0.422933    1.018141
C      5.182494    1.553033    1.870502
C      0.978738    0.758768   -0.372108
C     -0.250691    0.415081   -0.940321
H     -6.117515   -0.459434   -2.243132
H     -4.443120   -0.195273   -2.775078
H     -5.230871    0.947696   -1.634051
H     -3.402148   -0.846226    0.732687
H     -3.381333    0.614779   -0.252761
H     -2.321358   -0.747586   -2.144458
H     -2.392423   -2.172626   -1.149334
H     -0.918417   -2.388522    0.888018
H      1.250541   -1.769681    1.891928
H      3.824572   -0.416875   -0.374724
H      3.692407    1.360542   -0.224974
H      5.113963    2.483855    1.298290
H      6.169661    1.508277    2.338128
H      4.427940    1.542589    2.662793
H      1.476449    1.665408   -0.703319
H     -0.670862    1.050694   -1.718754

